Measurement: Powder, Xray Data XY Processed
Mineral: Almandine
Rruff sample: R040076
Ideal chemistry: Fe^2+^_3_Al_2_(SiO_4_)_3_
Locality: Barton Garnet mine, Gore Mountain, Warren County, New York, USA
Source: University of Arizona Mineral Museum
Description: Red coarsely crystalline
Measured chemistry: (Fe^2+^_1.38_Mg_1.26_Ca_0.33_Mn_0.03_)_Î£=3_Al_2.00_(Si_1.00_O_4_)_3_; trace amounts of Ti
Cell parameters: a: 11.5389(2) b: 11.5389(2) c: 11.5389(2) alpha: 90. beta: 90. gamma: 90. volume: 1536.39(8) crystal system: cubic
x	intensity
5	0
5.22	14.449
5.44	28.148
5.66	21.765
5.88	20.623
6.1	29.418
6.32	9.191
6.54	18.344
6.76	8.071
6.98	21.457
7.2	9.066
7.42	22.085
7.64	13.785
7.86	6.827
8.08	30.533
8.3	11.6
8.52	11.686
8.74	17.602
8.96	33.081
9.18	21.482
9.4	23.194
9.62	8.754
9.84	30.298
10.06	22.069
10.28	17.4
10.5	3.118
10.72	28.187
10.94	22.045
11.16	24.184
11.38	18.542
11.6	4.295
11.82	34.987
12.04	39.78
12.26	20.543
12.48	21.409
12.7	9.654
12.92	13.219
13.14	23.023
13.36	12.075
13.58	14.213
13.8	27.562
14.02	9.082
14.24	2.414
14.46	25.54
14.68	0.045
14.9	12.064
15.12	20.261
15.34	12.141
15.56	6.786
15.78	3.638
16	21.386
16.22	10.267
16.44	0.993
16.66	9.835
16.88	7.125
17.1	14.41
17.32	13.342
17.54	27.508
17.76	5.536
17.98	1.015
18.2	6.82
18.42	3.811
18.64	8.134
18.86	36.849
19.08	14.043
19.3	8.229
19.52	13.578
19.74	17.719
19.96	11.276
20.18	24.692
20.4	19.63
20.62	19.74
20.84	15.968
21.06	17.416
21.28	36.032
21.5	29.918
21.72	23.046
21.94	8.128
22.16	27.544
22.38	28.031
22.6	16.271
22.82	0.504
23.04	20.281
23.26	31.022
23.48	7.145
23.7	21.774
23.92	15.36
24.14	4.744
24.36	26.499
24.58	3.392
24.8	11.816
25.02	8.885
25.24	10.341
25.46	19.454
25.68	4.49
25.9	8.45
26.12	13.912
26.34	24.366
26.56	18.286
26.78	13.486
27	11.108
27.22	11.048
27.44	12.155
27.66	12.789
27.88	25.737
28.1	0.963
28.32	22.216
28.54	36.88
28.76	22.593
28.98	26.184
29.2	22.365
29.42	14.144
29.64	1.108
29.86	0.494
30.08	28.166
30.3	7.409
30.52	7.943
30.74	26.055
30.96	68.608
31.18	37.646
31.4	28.608
31.62	14.987
31.84	20.568
32.06	14.263
32.28	19.161
32.5	17.956
32.72	20.409
32.94	28.326
33.16	16.788
33.38	9.203
33.6	7.364
33.82	4.887
34.04	29.619
34.26	17.285
34.48	18.347
34.7	91.472
34.92	191.656
35.14	24.159
35.36	7.756
35.58	18.082
35.8	15.463
36.02	21.272
36.24	30.661
36.46	35.888
36.68	39.715
36.9	15.792
37.12	8.821
37.34	3.919
37.56	7.749
37.78	14.611
38	10.998
38.22	143.109
38.44	20.233
38.66	15.297
38.88	13.903
39.1	8.101
39.32	19.474
39.54	18.903
39.76	12.894
39.98	77.046
40.2	8.362
40.42	0.964
40.64	27.716
40.86	12.259
41.08	3.921
41.3	24.834
41.52	6.482
41.74	14.941
41.96	19.437
42.18	32.409
42.4	13.066
42.62	8.693
42.84	28.529
43.06	80.468
43.28	3.362
43.5	3.15
43.72	21.166
43.94	19.607
44.16	6.041
44.38	26.151
44.6	12.746
44.82	32.537
45.04	18.399
45.26	15.888
45.48	26.616
45.7	25.423
45.92	2.693
46.14	32.871
46.36	6.287
46.58	13.918
46.8	22.833
47.02	0.47
47.24	10.097
47.46	19.852
47.68	4.208
47.9	14.064
48.12	10.425
48.34	2.104
48.56	35.105
48.78	106.823
49	22.573
49.22	10.6
49.44	13.829
49.66	8.117
49.88	7.264
50.1	13.209
50.32	6.276
50.54	3.121
50.76	9.438
50.98	23.347
51.2	17.706
51.42	16.053
51.64	2.726
51.86	17.558
52.08	20.194
52.3	2.213
52.52	16.05
52.74	29.369
52.96	3.446
53.18	16.081
53.4	35.515
53.62	6.271
53.84	3.966
54.06	13.352
54.28	8.251
54.5	3.979
54.72	33.125
54.94	1.611
55.16	98.633
55.38	34.824
55.6	31.058
55.82	19.959
56.04	27.485
56.26	17.88
56.48	1.901
56.7	33.229
56.92	1.84
57.14	19.176
57.36	31.871
57.58	179.919
57.8	69.526
58.02	22.259
58.24	17.591
58.46	11.473
58.68	4.844
58.9	18.418
59.12	35.057
59.34	24.826
59.56	17.904
59.78	5.408
60	347.33
60.22	49.486
60.44	5.812
60.66	26.584
60.88	8.743
61.1	21.548
61.32	1.85
61.54	21.819
61.76	6.367
61.98	26.924
62.2	19.851
62.42	35.944
62.64	36.156
62.86	6.925
63.08	28.223
63.3	6.239
63.52	3.051
63.74	16.01
63.96	8.647
64.18	5.144
64.4	19.014
64.62	95.997
64.84	34.917
65.06	23.685
65.28	14.654
65.5	11.196
65.72	26.564
65.94	28.731
66.16	8.897
66.38	8.001
66.6	0.017
66.82	26.17
67.04	21.504
67.26	12.174
67.48	2.695
67.7	14.015
67.92	7.538
68.14	32.731
68.36	14.778
68.58	18.861
68.8	10.255
69.02	0.482
69.24	9.182
69.46	28.808
69.68	20.957
69.9	0.046
70.12	15.834
70.34	7.453
70.56	19.617
70.78	23.008
71	6.035
71.22	6.433
71.44	24.64
71.66	11.887
71.88	20.289
72.1	11.768
72.32	22.74
72.54	3.769
72.76	24.15
72.98	6.161
73.2	8.846
73.42	60.162
73.64	31.776
73.86	22.27
74.08	0.037
74.3	6.916
74.52	4.099
74.74	9.598
74.96	11.22
75.18	20.686
75.4	43.5
75.62	39.749
75.84	25.947
76.06	21.427
76.28	7.211
76.5	1.631
76.72	2.63
76.94	33.219
77.16	21.472
77.38	17.686
77.6	69.969
77.82	51.029
78.04	0.996
78.26	1.62
78.48	26.778
78.7	20.461
78.92	14.91
79.14	22.924
79.36	22.608
79.58	28.022
79.8	17.553
80.02	9.086
80.24	8.489
80.46	19.425
80.68	31.542
80.9	36.42
81.12	47.133
81.34	13.13
81.56	13.743
81.78	23.321
82	33.656
82.22	18.68
82.44	9.236
82.66	18.323
82.88	7.499
83.1	36.384
83.32	20.373
83.54	24.418
83.76	18.5
83.98	2.211
84.2	25.417
84.42	35.047
84.64	2.775
84.86	10.533
85.08	22.703
85.3	33.187
85.52	9.276
85.74	27.024
85.96	11.178
86.18	24.159
86.4	5.886
86.62	24.87
86.84	16.398
87.06	13.545
87.28	14.364
87.5	15.466
87.72	1.716
87.94	18.738
88.16	41.172
88.38	40.382
88.6	10.525
88.82	25.384
89.04	14.08
89.26	2.413
89.48	3.75
89.7	3.863
89.92	14.704
