Measurement: Powder, Xray Data XY Processed
Mineral: Ankerite
Rruff sample: R050181
Ideal chemistry: CaFe^2+^(CO_3_)_2_
Locality: Cerro Sapo, Cochabamba Department, Bolivia
Source: Marcus Origlieri
Description: White coarsely crystalline massive
Measured chemistry: Ca_1.00_(Fe^2+^_0.60_Mg_0.35_Mn^2+^_0.05_)_Î£=1_(CO_3_)_2_ ; C not measured but estimated by difference and stoichiometry
Cell parameters: a: 4.8270(1) b: 4.8270(1) c: 16.1475(8) alpha: 90. beta: 90. gamma: 120. volume: 325.83(2) crystal system: hexagonal
x	intensity
5	0
5.22	17.571
5.44	17.75
5.66	33.391
5.88	23.045
6.1	13.079
6.32	26.947
6.54	11.346
6.76	22.44
6.98	17.9
7.2	15.215
7.42	32.599
7.64	14.551
7.86	2.534
8.08	17.655
8.3	0.949
8.52	19.085
8.74	19.034
8.96	6.499
9.18	6.649
9.4	4.105
9.62	22.51
9.84	17.047
10.06	13.025
10.28	27.65
10.5	3.424
10.72	9.052
10.94	8.217
11.16	22.013
11.38	21.228
11.6	18.003
11.82	12.626
12.04	18.654
12.26	18.955
12.48	4.878
12.7	12.402
12.92	9.313
13.14	16.527
13.36	12.109
13.58	2.133
13.8	15.042
14.02	3.989
14.24	3.893
14.46	19.224
14.68	14.077
14.9	17.041
15.12	11.488
15.34	3.51
15.56	10.598
15.78	19.75
16	14.649
16.22	5.724
16.44	22.4
16.66	7.1
16.88	12.171
17.1	26.824
17.32	39.882
17.54	16.477
17.76	26.75
17.98	21.48
18.2	6.902
18.42	11.311
18.64	21.297
18.86	16.694
19.08	20.639
19.3	22.561
19.52	11.655
19.74	8.598
19.96	24.313
20.18	1.071
20.4	11.855
20.62	28.235
20.84	10.045
21.06	0.153
21.28	5.031
21.5	1.052
21.72	17.726
21.94	20.784
22.16	20.12
22.38	8.966
22.6	3.212
22.82	4.417
23.04	10.986
23.26	31.561
23.48	20.279
23.7	20.097
23.92	37.491
24.14	28.352
24.36	21.527
24.58	17.729
24.8	13.12
25.02	5.07
25.24	13.595
25.46	15.869
25.68	19.849
25.9	30.734
26.12	26.334
26.34	11.282
26.56	1.209
26.78	11.472
27	24.426
27.22	3.818
27.44	3.608
27.66	34.565
27.88	6.14
28.1	17.23
28.32	22.087
28.54	27.222
28.76	18.392
28.98	13.148
29.2	29.841
29.42	3.854
29.64	14.814
29.86	11.118
30.08	5.472
30.3	26.67
30.52	40.106
30.74	266.849
30.96	172.917
31.18	16.595
31.4	20.644
31.62	11.825
31.84	4.129
32.06	12.357
32.28	12.519
32.5	14.648
32.72	21.187
32.94	16.068
33.16	21.997
33.38	10.53
33.6	17.352
33.82	8.253
34.04	16.79
34.26	16.742
34.48	24.887
34.7	8.835
34.92	16.048
35.14	16.974
35.36	29.653
35.58	1.144
35.8	5.826
36.02	1.38
36.24	18.167
36.46	18.588
36.68	12.672
36.9	14.543
37.12	23.296
37.34	66.974
37.56	1.694
37.78	15.316
38	7.418
38.22	13.683
38.44	1.628
38.66	15.45
38.88	21.085
39.1	22.918
39.32	7.746
39.54	4.229
39.76	18.214
39.98	4.531
40.2	10.274
40.42	26.064
40.64	14.968
40.86	10.495
41.08	81.696
41.3	20.254
41.52	23.57
41.74	16.932
41.96	14.023
42.18	20.359
42.4	21.66
42.62	10.568
42.84	9.201
43.06	0.096
43.28	14.157
43.5	10.981
43.72	14.617
43.94	7.035
44.16	0.569
44.38	11.689
44.6	10.445
44.82	91.871
45.04	16.348
45.26	29.284
45.48	9.255
45.7	17.856
45.92	14.871
46.14	12.475
46.36	12.78
46.58	22.798
46.8	6.743
47.02	6.646
47.24	6.132
47.46	28.713
47.68	18.739
47.9	23.703
48.12	24.906
48.34	21.843
48.56	11.281
48.78	11.016
49	13.875
49.22	30.241
49.44	12.087
49.66	36.188
49.88	1.544
50.1	46.219
50.32	43.251
50.54	26.711
50.76	87.718
50.98	52.825
51.2	17.802
51.42	6.058
51.64	9.564
51.86	14.346
52.08	9.569
52.3	26.892
52.52	11.995
52.74	14.934
52.96	6.741
53.18	26.145
53.4	3.131
53.62	2.841
53.84	17.782
54.06	14.596
54.28	39.963
54.5	22.894
54.72	7.561
54.94	30.399
55.16	5.572
55.38	17.445
55.6	10.502
55.82	21.158
56.04	13.665
56.26	32.015
56.48	21.142
56.7	1.927
56.92	8.234
57.14	8.072
57.36	5.72
57.58	9.489
57.8	9.209
58.02	8.057
58.24	19.203
58.46	1.166
58.68	33.5
58.9	22.466
59.12	1.072
59.34	28.777
59.56	47.313
59.78	41.589
60	12.132
60.22	11.743
60.44	13.786
60.66	9.684
60.88	23.943
61.1	21.255
61.32	24.926
61.54	44.2
61.76	13.074
61.98	9.4
62.2	19.759
62.42	16.187
62.64	14.147
62.86	29.809
63.08	30.25
63.3	20.582
63.52	0.459
63.74	2.164
63.96	2.969
64.18	26.522
64.4	14.593
64.62	15.728
64.84	33.784
65.06	11.555
65.28	14.681
65.5	15.453
65.72	31.714
65.94	32.961
66.16	1.239
66.38	4.078
66.6	9.649
66.82	0.125
67.04	23.186
67.26	27.482
67.48	12.539
67.7	9.916
67.92	7.517
68.14	7.398
68.36	14.954
68.58	5.158
68.8	14.46
69.02	19.186
69.24	16.238
69.46	8.092
69.68	5.323
69.9	41.621
70.12	14.111
70.34	3.114
70.56	0.072
70.78	14.611
71	3.543
71.22	13.426
71.44	8.377
71.66	15.291
71.88	11.145
72.1	29.782
72.32	10.802
72.54	19.286
72.76	25.457
72.98	6.517
73.2	18.728
73.42	8.121
73.64	14.978
73.86	26.494
74.08	17.649
74.3	5.562
74.52	19.01
74.74	3.245
74.96	30.634
75.18	22.996
75.4	20.704
75.62	10.388
75.84	24.98
76.06	6.988
76.28	29.459
76.5	17.632
76.72	17.998
76.94	20.919
77.16	8.716
77.38	15.589
77.6	4.075
77.82	27.437
78.04	4.751
78.26	18.373
78.48	12.626
78.7	4.048
78.92	17.631
79.14	21.198
79.36	17.187
79.58	13.024
79.8	13.668
80.02	1.276
80.24	20.776
80.46	12.889
80.68	17.125
80.9	2.021
81.12	14.399
81.34	6.606
81.56	16.265
81.78	9.279
82	12.409
82.22	12.086
82.44	18.594
82.66	6.263
82.88	4.159
83.1	22.413
83.32	12.578
83.54	26.877
83.76	20.432
83.98	9.998
84.2	7.673
84.42	18.666
84.64	17.106
84.86	14.218
85.08	14.888
85.3	11.748
85.52	13.871
85.74	14.394
85.96	2.893
86.18	27.999
86.4	17.303
86.62	11.078
86.84	23.717
87.06	14.417
87.28	7.527
87.5	30.038
87.72	31.398
87.94	9.71
88.16	21.054
88.38	11.258
88.6	3.456
88.82	23.09
89.04	16.666
89.26	28.415
89.48	4.801
89.7	15.291
89.92	0.102
