Measurement: Powder, Xray Data XY Processed, 8216.rruff
Mineral: Antigorite
Rruff sample: R070228
Ideal chemistry: Mg_3_Si_2_O_5_(OH)_4_
Locality: Wood's Chrome Mine (Wood's Mine), Texas, Lancaster County, Pennsylvania, USA
Source: Michael Scott
Description: Compact massive, light to dark green associated with chromite
x	intensity
5	0
5.22	4.7328
5.44	22.3506
5.66	24.4021
5.88	5.45012
6.1	12.5539
6.32	6.30807
6.54	13.4864
6.76	5.84718
6.98	12.1343
7.2	13.3781
7.42	6.78946
7.64	8.4235
7.86	9.84165
8.08	21.4317
8.3	13.8162
8.52	2.94692
8.74	3.94128
8.96	18.2246
9.18	31.9431
9.4	12.5086
9.62	6.55132
9.84	8.6545
10.06	16.7984
10.28	23.9296
10.5	2.23721
10.72	0.373039
10.94	19.2579
11.16	13.7955
11.38	20.3683
11.6	2.25468
11.82	32.4507
12.04	223.676
12.26	566.947
12.48	269.681
12.7	17.545
12.92	29.1487
13.14	9.58183
13.36	1.60858
13.58	11.7407
13.8	3.56693
14.02	32.1726
14.24	24.2063
14.46	17.5199
14.68	4.62695
14.9	12.5226
15.12	1.60682
15.34	24.3025
15.56	12.6364
15.78	16.4428
16	4.43083
16.22	33.6402
16.44	21.2237
16.66	5.06432
16.88	21.0692
17.1	15.1245
17.32	12.6552
17.54	14.8654
17.76	11.4038
17.98	10.0289
18.2	2.25758
18.42	8.2251
18.64	21.9812
18.86	11.2826
19.08	23.5796
19.3	31.9094
19.52	16.8284
19.74	38.2712
19.96	9.58966
20.18	16.439
20.4	19.4294
20.62	22.7749
20.84	24.6813
21.06	24.6479
21.28	8.97028
21.5	5.62985
21.72	1.44919
21.94	14.3657
22.16	18.1302
22.38	20.1047
22.6	3.35091
22.82	10.4569
23.04	23.889
23.26	15.3257
23.48	20.5709
23.7	3.71249
23.92	3.10596
24.14	20.4118
24.36	34.8094
24.58	805.414
24.8	119.004
25.02	69.5543
25.24	36.205
25.46	41.7483
25.68	31.8429
25.9	12.265
26.12	11.9775
26.34	13.2762
26.56	7.61579
26.78	3.88382
27	0.774895
27.22	12.0644
27.44	18.5099
27.66	9.91546
27.88	36.111
28.1	10.4277
28.32	2.76844
28.54	24.3583
28.76	5.11256
28.98	8.69244
29.2	6.26383
29.42	14.9133
29.64	29.4376
29.86	21.4919
30.08	18.7921
30.3	6.70494
30.52	14.9754
30.74	5.36486
30.96	7.4702
31.18	30.2427
31.4	5.50298
31.62	24.5281
31.84	14.6142
32.06	5.40742
32.28	9.66325
32.5	8.89984
32.72	11.511
32.94	8.14689
33.16	7.95679
33.38	12.4888
33.6	17.276
33.82	14.6281
34.04	3.10428
34.26	4.25651
34.48	14.1876
34.7	31.4721
34.92	46.9312
35.14	61.2319
35.36	59.9514
35.58	116.87
35.8	31.0999
36.02	19.3976
36.24	39.899
36.46	17.5297
36.68	21.0757
36.9	21.7956
37.12	39.9513
37.34	11.3352
37.56	24.1209
37.78	41.3627
38	12.4797
38.22	3.70363
38.44	14.6406
38.66	3.6046
38.88	16.6514
39.1	5.12448
39.32	24.4781
39.54	18.8277
39.76	7.24413
39.98	12.7461
40.2	10.9594
40.42	4.32027
40.64	15.5924
40.86	34.2608
41.08	8.1518
41.3	18.8617
41.52	12.9851
41.74	14.6966
41.96	33.117
42.18	4.23012
42.4	12.1568
42.62	1.96727
42.84	17.985
43.06	25.1269
43.28	35.2142
43.5	45.3335
43.72	35.4292
43.94	7.49796
44.16	2.61346
44.38	6.73264
44.6	14.7704
44.82	14.6374
45.04	18.3527
45.26	8.85223
45.48	5.53582
45.7	13.8926
45.92	11.6017
46.14	15.7289
46.36	18.1898
46.58	3.38728
46.8	2.50673
47.02	10.6746
47.24	7.05125
47.46	11.7581
47.68	12.9949
47.9	10.9754
48.12	19.9944
48.34	6.63091
48.56	5.55613
48.78	15.6146
49	17.3487
49.22	12.8276
49.44	8.93619
49.66	13.9679
49.88	16.648
50.1	34.4254
50.32	21.1396
50.54	10.7122
50.76	15.0078
50.98	17.149
51.2	10.863
51.42	25.8422
51.64	1.88101
51.86	20.4519
52.08	0.783115
52.3	2.09231
52.52	27.2016
52.74	30.887
52.96	11.614
53.18	15.6776
53.4	18.897
53.62	11.8429
53.84	0.274279
54.06	9.84245
54.28	5.46938
54.5	4.01046
54.72	12.0004
54.94	0.495478
55.16	5.80608
55.38	13.1948
55.6	18.1879
55.82	8.02667
56.04	12.2565
56.26	3.24352
56.48	5.14347
56.7	4.82566
56.92	19.8787
57.14	17.9004
57.36	32.9295
57.58	33.8381
57.8	11.778
58.02	12.7113
58.24	4.71761
58.46	0.1145
58.68	9.00893
58.9	17.9348
59.12	16.7621
59.34	9.29883
59.56	5.97204
59.78	11.1266
60	17.3276
60.22	18.9305
60.44	3.97308
60.66	1.35475
60.88	20.7575
61.1	5.95806
61.32	6.6159
61.54	18.2029
61.76	9.95033
61.98	3.40605
62.2	8.14957
62.42	7.92067
62.64	10.3581
62.86	15.9967
63.08	12.855
63.3	3.88898
63.52	5.28221
63.74	7.27677
63.96	1.23899
64.18	12.3492
64.4	12.2509
64.62	0.865408
64.84	1.47171
65.06	4.59273
65.28	7.81969
65.5	3.89561
65.72	18.0521
65.94	16.7232
66.16	8.07804
66.38	20.0078
66.6	1.15341
66.82	1.1052
67.04	11.1379
67.26	5.1608
67.48	10.072
67.7	3.22223
67.92	3.47699
68.14	21.8077
68.36	16.0652
68.58	12.1208
68.8	1.59032
69.02	11.8821
69.24	2.71728
69.46	4.94027
69.68	10.2059
69.9	2.57969
70.12	7.33669
70.34	9.3373
70.56	6.12729
70.78	14.1559
71	0.133999
71.22	1.35422
71.44	0.59971
71.66	8.13353
71.88	16.2612
72.1	15.3846
72.32	11.2428
72.54	6.38049
72.76	7.27462
72.98	13.2367
73.2	0.731302
73.42	11.9322
73.64	3.48898
73.86	2.69247
74.08	3.67495
74.3	0.677494
74.52	17.7521
74.74	11.9323
74.96	2.21351
75.18	11.1715
75.4	2.54679
75.62	10.0023
75.84	5.34119
76.06	5.5893
76.28	2.4464
76.5	1.24809
76.72	18.879
76.94	8.75302
77.16	4.9832
77.38	5.38128
77.6	4.96966
77.82	10.0202
78.04	1.87591
78.26	12.6984
78.48	10.7632
78.7	7.25623
78.92	0.260252
79.14	2.10276
79.36	14.3116
79.58	10.242
79.8	2.01554
80.02	1.00248
80.24	10.0216
80.46	18.0994
80.68	5.68799
80.9	9.78617
81.12	26.7052
81.34	4.20312
81.56	16.6946
81.78	4.83067
82	5.17577
82.22	11.3136
82.44	10.2657
82.66	3.39347
82.88	14.3455
83.1	1.23112
83.32	0.814486
83.54	8.97292
83.76	14.62
83.98	12.3507
84.2	2.11571
84.42	1.32581
84.64	6.41261
84.86	11.351
85.08	15.3421
85.3	9.02474
85.52	10.2803
85.74	13.0766
85.96	4.41378
86.18	12.6614
86.4	8.01619
86.62	13.958
86.84	6.17234
87.06	17.2988
87.28	8.37222
87.5	0.27799
87.72	2.19745
87.94	3.28916
88.16	5.30892
88.38	2.50519
88.6	5.67618
88.82	5.38979
89.04	9.63211
89.26	12.0344
89.48	11.6608
89.7	17.3817
89.92	12.2743
