Measurement: Powder, Xray Data XY Processed, 3354.rruff
Mineral: Brucite
Rruff sample: R040077
Ideal chemistry: Mg(OH)_2_
Locality: Gabbs, Nye County, Nevada, USA
Source: University of Arizona Mineral Museum
Description: White fine-grained massive
x	intensity
5	0
5.22	14.454
5.44	7.924
5.66	9.467
5.88	10.396
6.1	10.141
6.32	8.097
6.54	15.921
6.76	15.286
6.98	4.71
7.2	9.14
7.42	10.564
7.64	3.86
7.86	8.119
8.08	13.512
8.3	4.887
8.52	14.411
8.74	6.449
8.96	10.86
9.18	5.166
9.4	5.381
9.62	8.187
9.84	3.582
10.06	3.585
10.28	3.476
10.5	8.172
10.72	8.89
10.94	3.344
11.16	13.063
11.38	13.628
11.6	0.671
11.82	13.132
12.04	19.972
12.26	27.751
12.48	0.261
12.7	3.854
12.92	9.968
13.14	11.329
13.36	8.635
13.58	8.039
13.8	2.267
14.02	4.61
14.24	15.384
14.46	6.17
14.68	9.343
14.9	1.849
15.12	14.606
15.34	4.996
15.56	1.206
15.78	8.491
16	1.896
16.22	4.503
16.44	9.266
16.66	12.16
16.88	55.797
17.1	7.359
17.32	4.031
17.54	14.439
17.76	3.408
17.98	20.131
18.2	36.901
18.42	174.83
18.64	3543.73
18.86	218.685
19.08	40.167
19.3	16.632
19.52	11.74
19.74	8.999
19.96	15.248
20.18	2.714
20.4	9.691
20.62	2.362
20.84	4.652
21.06	13.893
21.28	7.134
21.5	14.536
21.72	0.656
21.94	3.436
22.16	7.615
22.38	20.166
22.6	3.632
22.82	11.171
23.04	8.971
23.26	15.07
23.48	4.172
23.7	11.447
23.92	9.728
24.14	9.707
24.36	13.928
24.58	11.955
24.8	4.936
25.02	8.009
25.24	3.199
25.46	0.297
25.68	0.861
25.9	0.073
26.12	11.859
26.34	13.766
26.56	14.912
26.78	5.863
27	8.041
27.22	4.991
27.44	14.111
27.66	7.087
27.88	13.991
28.1	8.166
28.32	2.015
28.54	4.008
28.76	7.042
28.98	4.871
29.2	12.088
29.42	77.028
29.64	27.105
29.86	3.036
30.08	4.858
30.3	1.255
30.52	0.483
30.74	9.797
30.96	11.157
31.18	3.011
31.4	5.07
31.62	3.722
31.84	2.611
32.06	5.381
32.28	1.111
32.5	6.222
32.72	17.345
32.94	48.572
33.16	6.21
33.38	10.813
33.6	4.885
33.82	8.045
34.04	13.089
34.26	30.957
34.48	14.593
34.7	9.619
34.92	10.125
35.14	7.777
35.36	2.368
35.58	4.181
35.8	2.443
36.02	16.163
36.24	4.519
36.46	1.724
36.68	3.674
36.9	5.272
37.12	3.992
37.34	6.383
37.56	34.747
37.78	93.205
38	886.031
38.22	584.855
38.44	61.051
38.66	34.844
38.88	18.249
39.1	0.16
39.32	2.506
39.54	0.391
39.76	8.782
39.98	15.946
40.2	4.692
40.42	14.173
40.64	17.968
40.86	13.002
41.08	5.712
41.3	3.921
41.52	20.202
41.74	3.061
41.96	2.564
42.18	0.505
42.4	15.358
42.62	10.24
42.84	5.301
43.06	16.476
43.28	22.191
43.5	14.438
43.72	0.389
43.94	3.756
44.16	5.274
44.38	13.712
44.6	1.7
44.82	9.094
45.04	6.024
45.26	3.991
45.48	16.619
45.7	11.602
45.92	17.457
46.14	3.32
46.36	9.166
46.58	11.002
46.8	13.597
47.02	7.895
47.24	12.831
47.46	3.651
47.68	14.507
47.9	9.933
48.12	12.974
48.34	10.975
48.56	13.772
48.78	5.319
49	2.604
49.22	4.513
49.44	20.144
49.66	7.565
49.88	0.533
50.1	17.402
50.32	31.428
50.54	56.275
50.76	171.282
50.98	369.883
51.2	92.141
51.42	35.537
51.64	23.294
51.86	19.46
52.08	2.778
52.3	0.827
52.52	11.367
52.74	14.598
52.96	4.889
53.18	1.219
53.4	0.134
53.62	5.739
53.84	14.51
54.06	7.386
54.28	4.175
54.5	9.329
54.72	5.141
54.94	6.336
55.16	14.524
55.38	12.532
55.6	3.438
55.82	5.787
56.04	5.428
56.26	9.862
56.48	7.473
56.7	2.435
56.92	2.834
57.14	1.041
57.36	12.209
57.58	6.634
57.8	8.117
58.02	11.613
58.24	5.909
58.46	35.271
58.68	233.019
58.9	90.395
59.12	17.558
59.34	0.361
59.56	8.939
59.78	0.366
60	7.58
60.22	1.245
60.44	0.563
60.66	5.197
60.88	6.837
61.1	4.051
61.32	6.73
61.54	12.685
61.76	7.24
61.98	39.7
62.2	97.9
62.42	46.256
62.64	8.457
62.86	0.903
63.08	10.549
63.3	6.97
63.52	11.439
63.74	8.731
63.96	8.896
64.18	10.216
64.4	6.044
64.62	7.214
64.84	6.242
65.06	16.054
65.28	6.833
65.5	0.695
65.72	12.756
65.94	4.509
66.16	2.735
66.38	2.525
66.6	8.947
66.82	7.181
67.04	3.567
67.26	3.893
67.48	2.222
67.7	13.683
67.92	8.902
68.14	49.527
68.36	99.557
68.58	60.634
68.8	25.726
69.02	6.148
69.24	13.966
69.46	7.818
69.68	0.338
69.9	12.502
70.12	10.311
70.34	6.728
70.56	1.087
70.78	0.072
71	5.879
71.22	6.733
71.44	7.487
71.66	3.361
71.88	22.454
72.1	54.981
72.32	44.673
72.54	14.855
72.76	5.267
72.98	11.574
73.2	6.863
73.42	1.235
73.64	1.535
73.86	7.828
74.08	2.21
74.3	5.045
74.52	13.201
74.74	4.78
74.96	7.261
75.18	8.31
75.4	0.448
75.62	5.588
75.84	6.833
76.06	1.782
76.28	5.31
76.5	14.495
76.72	3.673
76.94	14.771
77.16	2.768
77.38	4.308
77.6	3.526
77.82	9.493
78.04	5.805
78.26	3.514
78.48	6.931
78.7	1.855
78.92	10.642
79.14	1.171
79.36	8.691
79.58	6.112
79.8	3.341
80.02	2.557
80.24	19.605
80.46	18.172
80.68	11.266
80.9	12.116
81.12	27.891
81.34	47.228
81.56	42.937
81.78	9.428
82	16.951
82.22	11.081
82.44	3.046
82.66	17.623
82.88	4.145
83.1	3.602
83.32	0.748
83.54	5.973
83.76	13.801
83.98	1.518
84.2	8.731
84.42	6.836
84.64	7.835
84.86	2.831
85.08	11.849
85.3	1.038
85.52	6.151
85.74	7.134
85.96	8.252
86.18	9.377
86.4	4.773
86.62	11.102
86.84	7.072
87.06	6.783
87.28	7.003
87.5	9.324
87.72	9.579
87.94	14.573
88.16	8.577
88.38	13.32
88.6	5.871
88.82	10.092
89.04	1.557
89.26	1.934
89.48	0.745
89.7	12.338
89.92	7.269
