Measurement: Powder, Xray Data XY Processed
Mineral: Calcite
Rruff sample: R040070
Ideal chemistry: CaCO_3_
Locality: Pryor Mountain, Big Horn County, Montana, USA
Source: University of Arizona Mineral Museum
Description: Orange scalenohedral crystals
Measured chemistry: (Ca_0.99_Mg_0.01_)CO_3_
Cell parameters: a: 4.9869(1) b: 4.9869(1) c: 17.0496(5) alpha: 90. beta: 90. gamma: 120. volume: 367.21(1) crystal system: hexagonal
x	intensity
5	0
5.22	9.015
5.44	15.751
5.66	13.725
5.88	3.775
6.1	22.074
6.32	15.83
6.54	39.961
6.76	18.367
6.98	13.471
7.2	4.941
7.42	9.544
7.64	1.302
7.86	8.699
8.08	0.176
8.3	2.579
8.52	1.187
8.74	4.053
8.96	8.227
9.18	2.264
9.4	6.369
9.62	12.505
9.84	1.441
10.06	11.336
10.28	2.692
10.5	0.962
10.72	9.536
10.94	8.754
11.16	7.978
11.38	2.527
11.6	2.767
11.82	1.034
12.04	5.145
12.26	7.483
12.48	1.548
12.7	3.452
12.92	1.739
13.14	14.373
13.36	7.306
13.58	7.34
13.8	6.083
14.02	1.127
14.24	6.1
14.46	17.283
14.68	0.327
14.9	5.38
15.12	5.54
15.34	0.295
15.56	2.477
15.78	4.584
16	1.584
16.22	1.731
16.44	5.129
16.66	2.31
16.88	4.467
17.1	12.416
17.32	4.523
17.54	1.54
17.76	2.941
17.98	5.873
18.2	1.841
18.42	0.933
18.64	4.936
18.86	2.498
19.08	0.682
19.3	7.975
19.52	6.946
19.74	7.812
19.96	6.711
20.18	6.289
20.4	4.279
20.62	0.455
20.84	8.423
21.06	2.807
21.28	3.939
21.5	10.038
21.72	3.835
21.94	9.103
22.16	8.096
22.38	2.379
22.6	1.243
22.82	3.408
23.04	37.197
23.26	20.634
23.48	0.828
23.7	2.812
23.92	5.532
24.14	3.182
24.36	1.912
24.58	8.721
24.8	32.61
25.02	17.945
25.24	17.591
25.46	16.539
25.68	11.911
25.9	9.26
26.12	2.64
26.34	17.08
26.56	44.737
26.78	5.49
27	3.255
27.22	4.812
27.44	4.292
27.66	5.882
27.88	3.351
28.1	4.528
28.32	0.685
28.54	13.857
28.76	6.847
28.98	11.678
29.2	54.096
29.42	524.284
29.64	182.627
29.86	35.806
30.08	11.966
30.3	4.692
30.52	3.807
30.74	3.772
30.96	1.503
31.18	3.449
31.4	5.045
31.62	22.586
31.84	7.933
32.06	2.014
32.28	3.554
32.5	8.712
32.72	6.184
32.94	9.488
33.16	7.849
33.38	0.167
33.6	6.803
33.82	6.689
34.04	9.543
34.26	0.292
34.48	4.608
34.7	11.226
34.92	10.812
35.14	1.594
35.36	3.044
35.58	8.84
35.8	14.9
36.02	223.288
36.24	23.581
36.46	7.198
36.68	6.535
36.9	7.964
37.12	2.71
37.34	1.647
37.56	2.626
37.78	4.435
38	5.432
38.22	11.188
38.44	7.605
38.66	8.353
38.88	14.703
39.1	10.481
39.32	13.385
39.54	131.492
39.76	15.465
39.98	7.99
40.2	5.277
40.42	0.837
40.64	5.199
40.86	5.64
41.08	4.011
41.3	7.003
41.52	7.092
41.74	2.883
41.96	6.437
42.18	1.79
42.4	9.914
42.62	5.484
42.84	6.823
43.06	11.72
43.28	135.351
43.5	22.267
43.72	8.247
43.94	5.217
44.16	8.475
44.38	4.871
44.6	4.164
44.82	5.518
45.04	3.705
45.26	3.829
45.48	3.399
45.7	1.944
45.92	10.92
46.14	3.034
46.36	4.007
46.58	4.647
46.8	11.299
47.02	10.923
47.24	34.643
47.46	36.601
47.68	155.798
47.9	17.254
48.12	12.155
48.34	11.635
48.56	166.39
48.78	56.608
49	3.077
49.22	7.457
49.44	3.897
49.66	3.379
49.88	3.242
50.1	8.896
50.32	0.882
50.54	3.426
50.76	7.166
50.98	10.749
51.2	1.994
51.42	15.921
51.64	6.038
51.86	6.996
52.08	7.939
52.3	0.058
52.52	8.124
52.74	10.215
52.96	1.524
53.18	2.732
53.4	9.722
53.62	1.769
53.84	4.806
54.06	3.073
54.28	6.132
54.5	2.194
54.72	3.215
54.94	4.073
55.16	6.06
55.38	4.56
55.6	3.133
55.82	1.711
56.04	5.187
56.26	4.78
56.48	0.104
56.7	17.598
56.92	9.458
57.14	2.138
57.36	10.023
57.58	33.011
57.8	18.178
58.02	4.355
58.24	4.861
58.46	0.489
58.68	4.752
58.9	0.138
59.12	8.462
59.34	5.567
59.56	4.652
59.78	3.589
60	7.424
60.22	7.306
60.44	1.169
60.66	17.663
60.88	32.427
61.1	60.637
61.32	18.564
61.54	9.445
61.76	6.465
61.98	1.521
62.2	1.609
62.42	0.67
62.64	0.153
62.86	3.215
63.08	13.281
63.3	23.477
63.52	4.203
63.74	2.089
63.96	2.046
64.18	6.057
64.4	3.007
64.62	10.943
64.84	19.867
65.06	6.911
65.28	3.762
65.5	9.005
65.72	58.903
65.94	19.253
66.16	1.612
66.38	2.974
66.6	1.22
66.82	4.639
67.04	8.994
67.26	3.315
67.48	0.625
67.7	0.454
67.92	0.409
68.14	4.403
68.36	0.195
68.58	1.108
68.8	1.915
69.02	3.807
69.24	4.55
69.46	8.378
69.68	0.242
69.9	0.199
70.12	5.389
70.34	36.456
70.56	19.662
70.78	6.725
71	3.756
71.22	3.806
71.44	4.789
71.66	0.79
71.88	3.688
72.1	6.551
72.32	2.186
72.54	3.983
72.76	3.863
72.98	31.609
73.2	17.672
73.42	0.567
73.64	3.597
73.86	7.828
74.08	1.924
74.3	4.214
74.52	1.466
74.74	2.7
74.96	3.87
75.18	2.951
75.4	2.988
75.62	2.814
75.84	1.78
76.06	0.355
76.28	9.386
76.5	12.284
76.72	6.147
76.94	5.121
77.16	9.189
77.38	8.359
77.6	10.441
77.82	3.581
78.04	0.858
78.26	1.96
78.48	1.309
78.7	4.595
78.92	6.822
79.14	1.028
79.36	3.073
79.58	4.006
79.8	3.793
80.02	3.683
80.24	5.537
80.46	2.238
80.68	8.032
80.9	5.653
81.12	3.425
81.34	7.293
81.56	19.153
81.78	12.088
82	6.971
82.22	6.029
82.44	7.981
82.66	0.096
82.88	0.815
83.1	1.72
83.32	3.789
83.54	2.742
83.76	19.475
83.98	14.341
84.2	20.114
84.42	2.094
84.64	5.022
84.86	13.215
85.08	11.405
85.3	3.752
85.52	0.012
85.74	0.919
85.96	1.472
86.18	2.731
86.4	5.065
86.62	8.424
86.84	6.622
87.06	3.832
87.28	2.849
87.5	3.009
87.72	5.044
87.94	6.202
88.16	3.305
88.38	5.22
88.6	5.473
88.82	2.232
89.04	2.311
89.26	2.393
89.48	4.396
89.7	6.467
89.92	4.829
