Measurement: Powder, Xray Data XY Processed, 2567.rruff
Mineral: Diopside
Rruff sample: R040009
Ideal chemistry: CaMgSi_2_O_6_
Locality: Otter Lake, Quebec, Canada
Source: University of Arizona Mineral Museum
Description: Green square prismatic crystal associated with pale orange calcite
x	intensity
5	0
5.22	18.725
5.44	15.06
5.66	9.644
5.88	9.601
6.1	12.308
6.32	12.857
6.54	17.092
6.76	20.753
6.98	6.924
7.2	9.524
7.42	13.873
7.64	13.346
7.86	4.151
8.08	16.155
8.3	0.614
8.52	3.811
8.74	1.045
8.96	15.59
9.18	15.984
9.4	19.905
9.62	16.546
9.84	11.495
10.06	14.025
10.28	5.529
10.5	11.038
10.72	3.567
10.94	0.896
11.16	8.29
11.38	9.511
11.6	7.548
11.82	2.524
12.04	7.236
12.26	1.001
12.48	12.897
12.7	5.768
12.92	2.667
13.14	7.411
13.36	11.809
13.58	11.519
13.8	3.491
14.02	7.441
14.24	5.778
14.46	11.962
14.68	9.125
14.9	5.346
15.12	1.385
15.34	5.175
15.56	13.568
15.78	8.729
16	10.972
16.22	16.406
16.44	9.592
16.66	4.537
16.88	5.862
17.1	13.974
17.32	14.227
17.54	18.455
17.76	2.188
17.98	9.835
18.2	8.381
18.42	3.234
18.64	6.885
18.86	5.571
19.08	2.027
19.3	1.543
19.52	11.462
19.74	7.359
19.96	38.294
20.18	9.438
20.4	4.961
20.62	10.038
20.84	14.504
21.06	5.698
21.28	4.837
21.5	2.781
21.72	3.818
21.94	1.898
22.16	5.895
22.38	12.748
22.6	2.131
22.82	4.827
23.04	4.76
23.26	6.363
23.48	0.416
23.7	9.363
23.92	2.129
24.14	4.988
24.36	19.146
24.58	2.059
24.8	7.058
25.02	5.772
25.24	8.87
25.46	0.609
25.68	14.28
25.9	0.723
26.12	2.478
26.34	1.917
26.56	17.557
26.78	15.979
27	7.605
27.22	13.389
27.44	15.425
27.66	212.444
27.88	10.689
28.1	5.727
28.32	8.157
28.54	3.351
28.76	5.582
28.98	3.661
29.2	7.712
29.42	20.314
29.64	27.363
29.86	510.063
30.08	48.891
30.3	451.793
30.52	18.509
30.74	13.146
30.96	143.832
31.18	7.793
31.4	2.952
31.62	10.545
31.84	6.806
32.06	15.583
32.28	2.951
32.5	4.821
32.72	0.774
32.94	3.492
33.16	1.144
33.38	7.271
33.6	15.787
33.82	8.578
34.04	11.715
34.26	5.046
34.48	1.091
34.7	8.321
34.92	58.757
35.14	20.77
35.36	17.456
35.58	109.281
35.8	212.291
36.02	10.035
36.24	14.746
36.46	4.451
36.68	6.041
36.9	4.176
37.12	14.79
37.34	4.762
37.56	10.244
37.78	9.576
38	12.721
38.22	4.652
38.44	9.398
38.66	6.443
38.88	11.374
39.1	67.217
39.32	22.801
39.54	6.532
39.76	3.198
39.98	7.016
40.2	8.929
40.42	3.877
40.64	8.244
40.86	27.577
41.08	40.731
41.3	11.667
41.52	7.722
41.74	9.017
41.96	76.71
42.18	12.137
42.4	105.151
42.62	11.728
42.84	14.591
43.06	16.774
43.28	5.013
43.5	2.18
43.72	7.207
43.94	13.299
44.16	0.562
44.38	89.925
44.6	23.893
44.82	20.168
45.04	43.432
45.26	25.664
45.48	4.272
45.7	7.904
45.92	3.28
46.14	28.7
46.36	6.125
46.58	11.47
46.8	9.73
47.02	2.658
47.24	5.712
47.46	4.11
47.68	1.418
47.9	12.213
48.12	3.706
48.34	3.73
48.56	1.419
48.78	5.098
49	27.871
49.22	16.387
49.44	16.12
49.66	63.005
49.88	23.248
50.1	16.622
50.32	20.249
50.54	1.648
50.76	12.719
50.98	1.921
51.2	10.394
51.42	8.643
51.64	20.09
51.86	13.554
52.08	46.769
52.3	64.576
52.52	5.26
52.74	8.345
52.96	3.761
53.18	4.839
53.4	7.682
53.62	8.551
53.84	1.368
54.06	4.036
54.28	1.442
54.5	13.349
54.72	1.328
54.94	14.262
55.16	5.878
55.38	21.201
55.6	0.938
55.82	3.967
56.04	5.967
56.26	2.206
56.48	14.083
56.7	75.358
56.92	39.467
57.14	24.349
57.36	2.358
57.58	4.824
57.8	15.2
58.02	0.147
58.24	12.206
58.46	3.605
58.68	2.975
58.9	13.971
59.12	21.954
59.34	1.476
59.56	18.049
59.78	29.301
60	7.977
60.22	2.444
60.44	9.274
60.66	39.937
60.88	14.666
61.1	0.78
61.32	2.114
61.54	13.922
61.76	15.627
61.98	6.732
62.2	16.598
62.42	33.787
62.64	5.98
62.86	4.436
63.08	2.692
63.3	3.667
63.52	4.587
63.74	8.825
63.96	4.07
64.18	12.402
64.4	2.374
64.62	5.662
64.84	2.418
65.06	4.181
65.28	19.862
65.5	33.731
65.72	67.543
65.94	14.003
66.16	0.374
66.38	33.541
66.6	27.027
66.82	0.523
67.04	12.859
67.26	3.224
67.48	9.903
67.7	13.845
67.92	2.413
68.14	9.35
68.36	10.319
68.58	2.862
68.8	7.087
69.02	3.928
69.24	4.779
69.46	8.563
69.68	10.301
69.9	5.72
70.12	7.929
70.34	9.522
70.56	5.925
70.78	34.857
71	44.603
71.22	25.029
71.44	3.74
71.66	15.041
71.88	11.605
72.1	11.839
72.32	11.135
72.54	0.7
72.76	11.356
72.98	9.295
73.2	6.07
73.42	4.938
73.64	14.435
73.86	34.961
74.08	23.431
74.3	17.976
74.52	4.77
74.74	1.608
74.96	15.611
75.18	17.555
75.4	1.63
75.62	6.805
75.84	6.321
76.06	10.964
76.28	47.557
76.5	25.165
76.72	5.515
76.94	1.033
77.16	7.25
77.38	4.498
77.6	0.245
77.82	6.931
78.04	1.851
78.26	4.256
78.48	5.175
78.7	14.971
78.92	11.913
79.14	4.104
79.36	5.955
79.58	5.085
79.8	8.005
80.02	8.132
80.24	5.149
80.46	6.222
80.68	3.849
80.9	2.914
81.12	0.964
81.34	3.854
81.56	8.258
81.78	10.526
82	12.648
82.22	21.253
82.44	6.582
82.66	1.205
82.88	0.107
83.1	4.869
83.32	13.883
83.54	3.818
83.76	7.825
83.98	12.372
84.2	4.265
84.42	12.835
84.64	7.619
84.86	8.482
85.08	3.32
85.3	3.381
85.52	6.478
85.74	6.547
85.96	5.595
86.18	2.831
86.4	0.082
86.62	2.882
86.84	7.91
87.06	9.156
87.28	5.983
87.5	3.084
87.72	9.177
87.94	6.403
88.16	6.592
88.38	12.886
88.6	8.372
88.82	4.55
89.04	9.997
89.26	9.451
89.48	6.901
89.7	10.964
89.92	8.29
