Measurement: Powder, Xray Data XY RAW, 11199.rruff
Mineral: Fayalite
Rruff sample: R100104
Ideal chemistry: Fe^2+^_2_SiO_4_
Locality: Dannemora, Uppsala Province, Sweden
Source: American Museum of Natural History
Description: Dark brown fragment, variety knebelite
x	intensity
5	0
5.22	0
5.44	0
5.66	0
5.88	0
6.1	0
6.32	0
6.54	0
6.76	0
6.98	0
7.2	0
7.42	0
7.64	0
7.86	0
8.08	0
8.3	0
8.52	0
8.74	0
8.96	0
9.18	0
9.4	0
9.62	0
9.84	0
10.06	0
10.28	0
10.5	0
10.72	0
10.94	0
11.16	0
11.38	0
11.6	0
11.82	0
12.04	0
12.26	0
12.48	0
12.7	0
12.92	0
13.14	0
13.36	0
13.58	0
13.8	0
14.02	0
14.24	0
14.46	0
14.68	0
14.9	0
15.12	0
15.34	0
15.56	0
15.78	0
16	0
16.22	0
16.44	0
16.66	3.449
16.88	0
17.1	0
17.32	0
17.54	0
17.76	0
17.98	0
18.2	0
18.42	0
18.64	0
18.86	0
19.08	0
19.3	0
19.52	0
19.74	0
19.96	0
20.18	4.145
20.4	0
20.62	0
20.84	0
21.06	0
21.28	0
21.5	0
21.72	0
21.94	0
22.16	6.638
22.38	0
22.6	0
22.82	0
23.04	0
23.26	0.702
23.48	0.006
23.7	0
23.92	0
24.14	0
24.36	0
24.58	0
24.8	72.051
25.02	0.004
25.24	0
25.46	0
25.68	0
25.9	0
26.12	0
26.34	0
26.56	0
26.78	0
27	0
27.22	0
27.44	0
27.66	0
27.88	0
28.1	0
28.32	0
28.54	0
28.76	0.448
28.98	7.025
29.2	0
29.42	0
29.64	0
29.86	0
30.08	0
30.3	0
30.52	0
30.74	0
30.96	0
31.18	0.755
31.4	16.886
31.62	0
31.84	0
32.06	0
32.28	0
32.5	0
32.72	0
32.94	0
33.16	0
33.38	0
33.6	22.868
33.82	5.647
34.04	0
34.26	0
34.48	0.633
34.7	16.58
34.92	0
35.14	0
35.36	0
35.58	46.611
35.8	0
36.02	0
36.24	0
36.46	0
36.68	0
36.9	10.163
37.12	7.751
37.34	0
37.56	0
37.78	0
38	5.732
38.22	0.011
38.44	0.144
38.66	14.609
38.88	0.006
39.1	0
39.32	0
39.54	0
39.76	0
39.98	0
40.2	0
40.42	0
40.64	0
40.86	5.437
41.08	0.001
41.3	0
41.52	0.001
41.74	0
41.96	0
42.18	0
42.4	0
42.62	0
42.84	0
43.06	0.068
43.28	2.515
43.5	0.868
43.72	0.105
43.94	0
44.16	0
44.38	0
44.6	0
44.82	0
45.04	0.797
45.26	0.465
45.48	0.026
45.7	0
45.92	0
46.14	0
46.36	0
46.58	0.007
46.8	1.039
47.02	0
47.24	0
47.46	0.126
47.68	0.395
47.9	0.006
48.12	0.245
48.34	0
48.56	0.132
48.78	0.018
49	3.395
49.22	2.26
49.44	0
49.66	0
49.88	0
50.1	0
50.32	0
50.54	0
50.76	0.194
50.98	38.776
51.2	0.737
51.42	0.83
51.64	0.258
51.86	0.042
52.08	0
52.3	0
52.52	0
52.74	0
52.96	0
53.18	1.227
53.4	4.904
53.62	0
53.84	0.932
54.06	5.447
54.28	0
54.5	0
54.72	0.116
54.94	0.185
55.16	4.338
55.38	0.093
55.6	0
55.82	1.308
56.04	6.787
56.26	0
56.48	0
56.7	3.408
56.92	0.04
57.14	0
57.36	0.037
57.58	2.819
57.8	0.836
58.02	0
58.24	0
58.46	0
58.68	0
58.9	0.003
59.12	0.043
59.34	0
59.56	0.581
59.78	3.397
60	6.186
60.22	7.989
60.44	3.334
60.66	0
60.88	0
61.1	0
61.32	0
61.54	0
61.76	0.677
61.98	0.275
62.2	0
62.42	0
62.64	0
62.86	0.118
63.08	0.267
63.3	1.128
63.52	0.006
63.74	0.021
63.96	0.208
64.18	0.224
64.4	5.257
64.62	0.418
64.84	0
65.06	0.319
65.28	0.795
65.5	0.004
65.72	4.258
65.94	3.447
66.16	1.072
66.38	0.417
66.6	0.009
66.82	0
67.04	0
67.26	0.884
67.48	0.103
67.7	3.404
67.92	2.348
68.14	0.001
68.36	0
68.58	0
68.8	0
69.02	0
69.24	5.993
69.46	4.232
69.68	1.362
69.9	0.728
70.12	0.2
70.34	0.308
70.56	0.002
70.78	0.178
71	0.282
71.22	0.182
71.44	0
71.66	0
71.88	0
72.1	0.209
72.32	0.089
72.54	0.003
72.76	0.446
72.98	1.528
73.2	0.611
73.42	0.086
73.64	0.313
73.86	0.153
74.08	0.028
74.3	0.013
74.52	0.001
74.74	0.022
74.96	0.009
75.18	0.04
75.4	0.573
75.62	0.275
75.84	0.005
76.06	0.002
76.28	0
76.5	0
76.72	0
76.94	0
77.16	0.12
77.38	0.065
77.6	0
77.82	0
78.04	0
78.26	0.069
78.48	0.709
78.7	0.34
78.92	0.259
79.14	0.261
79.36	0.468
79.58	0.302
79.8	0.019
80.02	0.004
80.24	2.006
80.46	1.132
80.68	0.032
80.9	2.951
81.12	0.73
81.34	0.301
81.56	0.118
81.78	0.002
82	0.009
82.22	0.638
82.44	0.357
82.66	0.829
82.88	2.061
83.1	0.297
83.32	0.046
83.54	0
83.76	0
83.98	0
84.2	0
84.42	0.27
84.64	0.2
84.86	0.027
85.08	0.019
85.3	0
85.52	0
85.74	0.047
85.96	0.069
86.18	0.304
86.4	0.015
86.62	0.382
86.84	0.015
87.06	0.014
87.28	0.033
87.5	0.133
87.72	0.004
87.94	0.448
88.16	0.026
88.38	0.502
88.6	2.279
88.82	1.197
89.04	0
89.26	0
89.48	0
89.7	0.389
89.92	0.426
