Measurement: Powder, Xray Data XY Processed
Mineral: Magnesite
Rruff sample: R040114
Ideal chemistry: MgCO_3_
Locality: Snarum, Norway
Source: University of Arizona Mineral Museum
Description: Tan colored cleavage fragment
Measured chemistry: (Mg_0.98_Fe_0.01_)C_1.00_O_3_
Cell parameters: a: 4.6345(1) b: 4.6345(1) c: 15.0228(5) alpha: 90. beta: 90. gamma: 120. volume: 279.45(1) crystal system: hexagonal
x	intensity
5	0
5.22	7.60014
5.44	14.0489
5.66	4.86446
5.88	19.0531
6.1	11.621
6.32	0.79723
6.54	10.9407
6.76	14.0628
6.98	1.09553
7.2	16.6289
7.42	11.5951
7.64	18.5094
7.86	0.087162
8.08	8.58154
8.3	10.2128
8.52	8.09934
8.74	5.0265
8.96	6.1509
9.18	15.2978
9.4	10.0903
9.62	14.2512
9.84	12.0061
10.06	11.7019
10.28	11.5731
10.5	5.51521
10.72	8.36646
10.94	12.9859
11.16	13.7707
11.38	14.08
11.6	1.2469
11.82	5.84774
12.04	7.32353
12.26	14.5588
12.48	8.66683
12.7	11.7305
12.92	6.70532
13.14	3.10199
13.36	11.6837
13.58	11.4635
13.8	5.83915
14.02	15.7137
14.24	5.76715
14.46	0.051237
14.68	5.18243
14.9	7.66054
15.12	5.75001
15.34	2.84499
15.56	4.74962
15.78	1.97274
16	1.37438
16.22	9.73749
16.44	3.00009
16.66	2.78672
16.88	4.2878
17.1	4.46074
17.32	7.07637
17.54	9.03771
17.76	16.0747
17.98	1.15666
18.2	12.4113
18.42	7.39295
18.64	15.2773
18.86	10.1894
19.08	19.8667
19.3	9.53227
19.52	12.2507
19.74	5.61165
19.96	6.59429
20.18	3.22796
20.4	7.60063
20.62	16.4241
20.84	12.0724
21.06	4.84026
21.28	0.447989
21.5	1.79482
21.72	16.7617
21.94	6.55384
22.16	2.01071
22.38	5.09114
22.6	19.1713
22.82	9.38917
23.04	8.20066
23.26	12.3312
23.48	0.211168
23.7	3.22657
23.92	7.05405
24.14	1.32795
24.36	7.49499
24.58	4.32534
24.8	10.7542
25.02	0.41501
25.24	14.0438
25.46	23.5721
25.68	46.8098
25.9	4.99422
26.12	0.895031
26.34	6.71192
26.56	12.311
26.78	8.78286
27	18.0561
27.22	8.28104
27.44	2.69594
27.66	1.67028
27.88	2.46604
28.1	6.19869
28.32	5.14306
28.54	7.27059
28.76	19.3321
28.98	8.92013
29.2	0.447033
29.42	23.7239
29.64	8.67704
29.86	6.94539
30.08	14.1868
30.3	0.572399
30.52	2.48166
30.74	5.67954
30.96	20.4162
31.18	10.1382
31.4	11.2317
31.62	6.44663
31.84	18.2451
32.06	10.3858
32.28	21.1588
32.5	141.269
32.72	1179.75
32.94	98.2413
33.16	18.8742
33.38	5.44659
33.6	8.94467
33.82	2.11094
34.04	1.79073
34.26	13.347
34.48	4.41659
34.7	8.23931
34.92	19.891
35.14	63.2164
35.36	47.9477
35.58	19.8381
35.8	63.5951
36.02	80.2039
36.24	5.84568
36.46	13.2731
36.68	2.64007
36.9	5.04102
37.12	0.328671
37.34	2.26551
37.56	5.88113
37.78	25.5601
38	18.8196
38.22	5.80884
38.44	6.77476
38.66	16.5287
38.88	41.3281
39.1	7.91966
39.32	7.4851
39.54	8.13411
39.76	1.61895
39.98	1.03367
40.2	6.16889
40.42	4.01639
40.64	6.70518
40.86	4.38045
41.08	4.87734
41.3	9.98916
41.52	1.17681
41.74	0.690479
41.96	9.14663
42.18	11.0479
42.4	5.27165
42.62	20.6774
42.84	78.3442
43.06	387.141
43.28	119.733
43.5	72.1039
43.72	21.9752
43.94	8.54311
44.16	16.4624
44.38	1.43152
44.6	11.2096
44.82	0.258747
45.04	10.5591
45.26	14.8274
45.48	1.36844
45.7	9.24493
45.92	2.57077
46.14	6.12647
46.36	7.16188
46.58	14.3117
46.8	57.6273
47.02	75.5985
47.24	17.8328
47.46	12.8224
47.68	6.17327
47.9	0.528582
48.12	8.76056
48.34	11.018
48.56	11.3757
48.78	4.84602
49	3.95222
49.22	9.78676
49.44	8.15145
49.66	7.40256
49.88	2.63331
50.1	0.56134
50.32	0.616167
50.54	10.2176
50.76	5.78038
50.98	8.56632
51.2	8.65087
51.42	3.55567
51.64	37.4375
51.86	0.531912
52.08	2.53374
52.3	4.57776
52.52	23.9616
52.74	20.086
52.96	6.8858
53.18	2.819
53.4	10.4677
53.62	30.4001
53.84	203.105
54.06	214.336
54.28	38.1221
54.5	0.89152
54.72	4.08643
54.94	8.79271
55.16	1.7974
55.38	3.49985
55.6	7.79929
55.82	1.70864
56.04	15.4499
56.26	10.0292
56.48	12.2874
56.7	4.0397
56.92	0.342804
57.14	10.3065
57.36	26.7915
57.58	29.8053
57.8	18.0147
58.02	18.4954
58.24	5.16947
58.46	5.87989
58.68	1.41907
58.9	4.97378
59.12	8.50638
59.34	9.15764
59.56	6.28439
59.78	5.84972
60	6.79505
60.22	0.358239
60.44	10.0574
60.66	1.40744
60.88	10.9299
61.1	6.7514
61.32	23.5168
61.54	16.0962
61.76	20.7376
61.98	9.89358
62.2	10.9427
62.42	23.3701
62.64	29.7467
62.86	10.1113
63.08	3.39274
63.3	4.4853
63.52	0.363643
63.74	5.15483
63.96	2.3145
64.18	4.49522
64.4	12.2359
64.62	6.46223
64.84	2.73766
65.06	5.33455
65.28	1.08721
65.5	3.84153
65.72	2.37332
65.94	0.26148
66.16	14.1046
66.38	40.2112
66.6	43.064
66.82	6.90874
67.04	5.98942
67.26	7.5237
67.48	7.62301
67.7	0.20451
67.92	6.97276
68.14	31.3343
68.36	15.6014
68.58	43.8618
68.8	5.34749
69.02	2.74583
69.24	24.3134
69.46	35.2958
69.68	9.61083
69.9	8.23413
70.12	1.24943
70.34	47.1595
70.56	36.0973
70.78	11.6721
71	2.68949
71.22	1.42303
71.44	1.68787
71.66	9.42222
71.88	4.20437
72.1	5.69585
72.32	8.98649
72.54	7.54283
72.76	4.59172
72.98	3.10719
73.2	7.86476
73.42	13.9796
73.64	0.003931
73.86	12.2744
74.08	9.36406
74.3	8.35625
74.52	9.25661
74.74	10.9253
74.96	6.45904
75.18	6.02626
75.4	5.14306
75.62	6.53515
75.84	12.9568
76.06	29.6227
76.28	17.9677
76.5	1.77571
76.72	1.14981
76.94	15.0204
77.16	16.513
77.38	11.9808
77.6	0.217772
77.82	6.05113
78.04	0.729838
78.26	10.3573
78.48	9.76704
78.7	3.03739
78.92	9.05898
79.14	0.773745
79.36	12.9583
79.58	11.8352
79.8	12.5931
80.02	18.9584
80.24	11.1532
80.46	5.01014
80.68	9.70906
80.9	1.89999
81.12	5.84725
81.34	9.98406
81.56	16.3161
81.78	10.333
82	8.59863
82.22	4.82982
82.44	12.923
82.66	2.88089
82.88	2.26231
83.1	5.9709
83.32	12.0456
83.54	4.41726
83.76	7.54273
83.98	1.70647
84.2	6.654
84.42	1.10385
84.64	1.55818
84.86	8.49767
85.08	1.50161
85.3	8.10928
85.52	14.2243
85.74	5.24482
85.96	6.07986
86.18	1.94022
86.4	15.557
86.62	9.69566
86.84	2.17801
87.06	8.98042
87.28	3.12111
87.5	7.11818
87.72	1.81401
87.94	9.11705
88.16	0.923875
88.38	1.27851
88.6	7.64194
88.82	23.1616
89.04	15.3298
89.26	10.5771
89.48	6.26283
89.7	9.41697
89.92	1.92838
