Measurement: Powder, Xray Data XY Processed, 3847.rruff
Mineral: Microcline
Rruff sample: R040154
Ideal chemistry: KAlSi_3_O_8_
Locality: Mitchell County, North Carolina, USA
Source: University of Arizona Mineral Museum
Description: White cleavage fragment with some perthitic character
x	intensity
5	0
5.22	8.15513
5.44	18.3851
5.66	3.54034
5.88	9.73618
6.1	19.3866
6.32	14.0771
6.54	13.2252
6.76	6.72626
6.98	6.83402
7.2	5.12346
7.42	5.05474
7.64	5.07768
7.86	12.9494
8.08	4.36243
8.3	3.98502
8.52	7.55076
8.74	7.96267
8.96	13.0932
9.18	1.69907
9.4	10.2313
9.62	6.11397
9.84	5.46371
10.06	14.6018
10.28	4.87401
10.5	2.74326
10.72	1.80199
10.94	8.87749
11.16	13.233
11.38	10.2501
11.6	5.26066
11.82	6.2068
12.04	1.97965
12.26	1.58572
12.48	2.14787
12.7	4.63608
12.92	6.36925
13.14	9.32821
13.36	5.1
13.58	9.7871
13.8	15.5482
14.02	5.46973
14.24	2.68528
14.46	3.84296
14.68	0.978458
14.9	14.2125
15.12	16.5537
15.34	5.86138
15.56	10.0949
15.78	3.38404
16	0.372562
16.22	5.78458
16.44	7.05506
16.66	1.48154
16.88	12.02
17.1	2.36578
17.32	0.628067
17.54	11.6046
17.76	0.680104
17.98	8.34696
18.2	2.24063
18.42	3.12401
18.64	9.01064
18.86	8.19718
19.08	9.95649
19.3	9.94594
19.52	4.74118
19.74	8.46599
19.96	4.31124
20.18	7.2132
20.4	4.86275
20.62	7.04813
20.84	7.30711
21.06	120.675
21.28	11.6194
21.5	4.42897
21.72	0.813764
21.94	5.99956
22.16	11.6207
22.38	57.224
22.6	16.7097
22.82	1.53131
23.04	8.73774
23.26	81.9847
23.48	35.1461
23.7	28.5361
23.92	15.8019
24.14	22.4503
24.36	40.2874
24.58	11.6776
24.8	35.5091
25.02	14.9391
25.24	2.0189
25.46	12.1669
25.68	213.303
25.9	1.38667
26.12	1.69446
26.34	17.3989
26.56	107.374
26.78	21.0809
27	35.9228
27.22	101.157
27.44	318.248
27.66	168.977
27.88	48.7128
28.1	25.7175
28.32	21.2805
28.54	3.04829
28.76	7.65579
28.98	1.24205
29.2	7.66141
29.42	27.9587
29.64	35.2764
29.86	16.579
30.08	24.319
30.3	110.889
30.52	33.3002
30.74	51.0192
30.96	76.3251
31.18	5.10116
31.4	12.9591
31.62	11.8543
31.84	0.265731
32.06	11.8054
32.28	18.2503
32.5	36.9087
32.72	1.78875
32.94	6.92177
33.16	4.36088
33.38	4.6198
33.6	6.07822
33.82	12.4233
34.04	2.2455
34.26	38.1403
34.48	8.18422
34.7	12.7999
34.92	32.1965
35.14	33.2435
35.36	21.0594
35.58	21.5526
35.8	11.8308
36.02	7.31101
36.24	0.101289
36.46	0.446708
36.68	4.02437
36.9	12.022
37.12	24.7848
37.34	12.1271
37.56	10.6721
37.78	7.39002
38	4.35655
38.22	4.6791
38.44	3.91981
38.66	40.8033
38.88	15.186
39.1	10.2504
39.32	2.01907
39.54	2.76826
39.76	3.80849
39.98	2.00072
40.2	2.87268
40.42	6.65075
40.64	6.18203
40.86	6.51613
41.08	7.4239
41.3	1.17493
41.52	2.13632
41.74	23.5681
41.96	137.22
42.18	2.74904
42.4	5.09989
42.62	3.77755
42.84	10.8076
43.06	1.93119
43.28	12.0988
43.5	2.50338
43.72	8.22986
43.94	4.0739
44.16	0.450224
44.38	18.7533
44.6	7.14421
44.82	3.47375
45.04	4.80683
45.26	0.6897
45.48	5.81394
45.7	21.445
45.92	15.1986
46.14	9.29745
46.36	16.9467
46.58	2.71848
46.8	1.75129
47.02	11.618
47.24	22.5644
47.46	12.6393
47.68	10.5257
47.9	1.27053
48.12	7.42139
48.34	6.26218
48.56	10.753
48.78	13.7336
49	30.5967
49.22	12.1307
49.44	9.12898
49.66	6.90798
49.88	9.56449
50.1	1.34019
50.32	13.935
50.54	101.51
50.76	50.7678
50.98	30.1537
51.2	20.8914
51.42	4.37689
51.64	3.83632
51.86	7.2679
52.08	0.232898
52.3	7.12162
52.52	9.46746
52.74	11.7181
52.96	7.02308
53.18	0.937968
53.4	0.624835
53.62	7.31881
53.84	10.6167
54.06	4.80382
54.28	0.775878
54.5	5.70027
54.72	5.6811
54.94	3.62608
55.16	1.51987
55.38	6.34987
55.6	15.1972
55.82	6.04211
56.04	1.84452
56.26	6.35324
56.48	2.97465
56.7	6.92997
56.92	12.9004
57.14	7.82207
57.36	21.6625
57.58	9.32978
57.8	0.063442
58.02	0.636415
58.24	6.56938
58.46	5.64352
58.68	20.8934
58.9	14.0302
59.12	2.54161
59.34	6.90459
59.56	4.94869
59.78	12.0281
60	3.11004
60.22	2.21798
60.44	7.94822
60.66	8.05229
60.88	5.92136
61.1	15.9494
61.32	17.5513
61.54	14.7008
61.76	3.92846
61.98	5.71776
62.2	2.36347
62.42	4.0012
62.64	3.57224
62.86	28.2187
63.08	12.6067
63.3	6.18533
63.52	10.3234
63.74	8.87842
63.96	26.0361
64.18	10.1905
64.4	0.572274
64.62	5.07404
64.84	5.5936
65.06	13.3017
65.28	19.593
65.5	13.8932
65.72	6.1783
65.94	7.00165
66.16	1.72274
66.38	17.853
66.6	13.1422
66.82	4.35367
67.04	11.0404
67.26	14.6742
67.48	2.79784
67.7	0.005817
67.92	8.10578
68.14	11.3695
68.36	7.94995
68.58	3.13557
68.8	10.1711
69.02	7.12204
69.24	3.05749
69.46	5.10054
69.68	3.95
69.9	1.98124
70.12	4.99417
70.34	3.10206
70.56	1.35899
70.78	0.297279
71	3.39176
71.22	3.0446
71.44	9.55642
71.66	15.1587
71.88	6.15125
72.1	22.9221
72.32	17.616
72.54	2.16905
72.76	6.00407
72.98	7.54378
73.2	18.9427
73.42	11.2992
73.64	7.45186
73.86	0.320967
74.08	3.88598
74.3	3.74391
74.52	11.9345
74.74	5.08699
74.96	9.472
75.18	4.6771
75.4	23.6385
75.62	10.0726
75.84	6.52569
76.06	2.3545
76.28	1.83906
76.5	3.31137
76.72	4.85418
76.94	2.31907
77.16	0.540933
77.38	6.72945
77.6	8.79012
77.82	1.81275
78.04	1.36604
78.26	5.81575
78.48	1.41092
78.7	5.31491
78.92	3.0406
79.14	5.69199
79.36	4.50336
79.58	7.52503
79.8	3.36183
80.02	8.30315
80.24	0.718799
80.46	14.3125
80.68	7.70164
80.9	8.98214
81.12	13.1274
81.34	5.25257
81.56	9.26868
81.78	10.3666
82	0.343883
82.22	8.27815
82.44	10.6013
82.66	4.64169
82.88	1.38732
83.1	3.3342
83.32	0.990218
83.54	4.90505
83.76	2.85453
83.98	0.146136
84.2	21.8227
84.42	5.76255
84.64	8.06553
84.86	5.12658
85.08	7.01948
85.3	7.18659
85.52	6.28576
85.74	4.41275
85.96	4.51434
86.18	2.59832
86.4	2.33718
86.62	4.8857
86.84	5.17366
87.06	3.07885
87.28	8.91233
87.5	1.31074
87.72	5.26389
87.94	7.46906
88.16	8.84741
88.38	3.92648
88.6	6.89279
88.82	5.77122
89.04	2.69447
89.26	4.70994
89.48	3.24424
89.7	8.82377
89.92	4.90309
