Measurement: Powder, Xray Data XY Processed, 3490.rruff
Mineral: Muscovite
Rruff sample: R040104
Ideal chemistry: KAl_2_(Si_3_Al)O_10_(OH)_2_
Locality: unknown
Source: University of Arizona Mineral Museum
Description: Dark green hexagonal tablet
x	intensity
5	0
5.22	16.993
5.44	19.286
5.66	18.994
5.88	13.306
6.1	19.269
6.32	24.194
6.54	15.733
6.76	15.887
6.98	20.302
7.2	9.367
7.42	24.858
7.64	14
7.86	4.927
8.08	28.628
8.3	2.1
8.52	7.955
8.74	197.354
8.96	668.811
9.18	37.084
9.4	19.461
9.62	8.496
9.84	7.409
10.06	12.106
10.28	12.234
10.5	3.293
10.72	2.335
10.94	1.443
11.16	10.498
11.38	2.59
11.6	10.452
11.82	12.997
12.04	6.296
12.26	16.298
12.48	3.375
12.7	0.819
12.92	8.932
13.14	9.924
13.36	6.591
13.58	1.723
13.8	14.21
14.02	2.213
14.24	1.602
14.46	10.973
14.68	10.015
14.9	4.498
15.12	0.302
15.34	5.489
15.56	3.795
15.78	7.332
16	17.419
16.22	9.349
16.44	8.055
16.66	7.123
16.88	4.242
17.1	1.204
17.32	3.107
17.54	4.74
17.76	369.052
17.98	16.191
18.2	12.807
18.42	16.523
18.64	9.424
18.86	12.432
19.08	11.534
19.3	4.995
19.52	12.155
19.74	9.356
19.96	16.746
20.18	12.86
20.4	5.983
20.62	7.058
20.84	3.646
21.06	9.696
21.28	5.853
21.5	14.86
21.72	16.582
21.94	3.75
22.16	11.462
22.38	15.696
22.6	17.879
22.82	3.816
23.04	8.747
23.26	6.845
23.48	2.231
23.7	0.534
23.92	19.62
24.14	28.586
24.36	6.608
24.58	12.495
24.8	12.008
25.02	12.972
25.24	4.692
25.46	46.401
25.68	25.601
25.9	13.406
26.12	7.752
26.34	5.814
26.56	32.884
26.78	1261.7
27	83.846
27.22	16.073
27.44	8.037
27.66	3.949
27.88	41.283
28.1	7.357
28.32	1.082
28.54	9.35
28.76	15.905
28.98	1.617
29.2	9.512
29.42	14.995
29.64	9.929
29.86	51.942
30.08	18.052
30.3	10.852
30.52	3.727
30.74	4.361
30.96	7.099
31.18	25.227
31.4	25.405
31.62	6.23
31.84	14.527
32.06	30.476
32.28	6.368
32.5	19.195
32.72	1.771
32.94	1.297
33.16	13.137
33.38	0.237
33.6	16.002
33.82	1.161
34.04	1.571
34.26	11.077
34.48	21.575
34.7	12.449
34.92	24.38
35.14	37.612
35.36	6.348
35.58	3.512
35.8	5.444
36.02	207.561
36.24	6.123
36.46	1.533
36.68	7.914
36.9	0.221
37.12	9.998
37.34	13.047
37.56	7.918
37.78	29.372
38	3.108
38.22	1.033
38.44	2.949
38.66	2.61
38.88	12.182
39.1	2.68
39.32	3.335
39.54	3.965
39.76	2.827
39.98	9.751
40.2	12.726
40.42	9.732
40.64	6.743
40.86	29.26
41.08	6.591
41.3	2.085
41.52	0.699
41.74	6.81
41.96	3.891
42.18	12.362
42.4	17.91
42.62	0.293
42.84	11.556
43.06	10.915
43.28	22.776
43.5	32.977
43.72	0.119
43.94	12.917
44.16	13.967
44.38	2.955
44.6	10.946
44.82	8.943
45.04	9.011
45.26	32.432
45.48	1010.63
45.7	48.864
45.92	6.129
46.14	10.849
46.36	8.422
46.58	6.333
46.8	5.841
47.02	1.401
47.24	3.927
47.46	3.41
47.68	2.81
47.9	7.278
48.12	5.367
48.34	3.396
48.56	5.676
48.78	2.798
49	7.511
49.22	14.968
49.44	18.104
49.66	2.747
49.88	0.281
50.1	7.512
50.32	2.324
50.54	14.834
50.76	7.051
50.98	11.417
51.2	2.249
51.42	11.064
51.64	9.576
51.86	6.398
52.08	8.296
52.3	0.834
52.52	15.706
52.74	23.116
52.96	12.965
53.18	8.589
53.4	4.825
53.62	14.067
53.84	15.192
54.06	2.336
54.28	7.327
54.5	4.254
54.72	4.124
54.94	4.783
55.16	9.485
55.38	20.371
55.6	8.743
55.82	20.448
56.04	1.903
56.26	3.93
56.48	4.723
56.7	6.658
56.92	2.683
57.14	18.238
57.36	22.48
57.58	29.378
57.8	15.478
58.02	2.479
58.24	1.611
58.46	11.891
58.68	8.125
58.9	5.21
59.12	2.88
59.34	9.97
59.56	4.639
59.78	5.317
60	1.247
60.22	0.22
60.44	4.625
60.66	10.522
60.88	12.283
61.1	0.613
61.32	14.337
61.54	15.51
61.76	4.001
61.98	5.63
62.2	2.118
62.42	4.42
62.64	16.803
62.86	6.167
63.08	7.425
63.3	9.683
63.52	8.907
63.74	14.071
63.96	3.361
64.18	13.798
64.4	5.948
64.62	9.652
64.84	10.322
65.06	6.809
65.28	1.53
65.5	50.222
65.72	18.614
65.94	7.351
66.16	9.173
66.38	0.957
66.6	1.343
66.82	5.779
67.04	3.943
67.26	14.125
67.48	2.351
67.7	11.502
67.92	0.343
68.14	9.402
68.36	10.468
68.58	12.262
68.8	6.927
69.02	9.333
69.24	6.286
69.46	9.449
69.68	25.682
69.9	0.853
70.12	7.516
70.34	11.664
70.56	4.455
70.78	3.92
71	1.195
71.22	9.465
71.44	0.02
71.66	12.336
71.88	9.493
72.1	5.812
72.32	14.198
72.54	9.546
72.76	11.502
72.98	22.166
73.2	20.221
73.42	11.217
73.64	2.214
73.86	6.235
74.08	0.122
74.3	13.033
74.52	11.211
74.74	7.317
74.96	7.055
75.18	0.991
75.4	0.205
75.62	9.603
75.84	9.527
76.06	8.335
76.28	29.277
76.5	29.485
76.72	13.248
76.94	10.096
77.16	19.059
77.38	8.371
77.6	6.658
77.82	14.746
78.04	12.965
78.26	12.044
78.48	1.224
78.7	12.099
78.92	0.096
79.14	2.138
79.36	1.185
79.58	5.821
79.8	11.026
80.02	2.913
80.24	0.989
80.46	3.959
80.68	3.259
80.9	8.668
81.12	5.806
81.34	3.952
81.56	7.28
81.78	0.6
82	9.757
82.22	9.618
82.44	9.752
82.66	7.921
82.88	1.742
83.1	3.373
83.32	11.296
83.54	6.533
83.76	10.35
83.98	10.427
84.2	1.251
84.42	17.387
84.64	5.349
84.86	12.485
85.08	1.371
85.3	5.138
85.52	2.821
85.74	8.819
85.96	4.783
86.18	13.754
86.4	9.622
86.62	4.739
86.84	0.387
87.06	8.625
87.28	6.453
87.5	1.577
87.72	8.779
87.94	9.793
88.16	0.596
88.38	8.827
88.6	9.155
88.82	5.676
89.04	8.84
89.26	9.346
89.48	4.833
89.7	9.039
89.92	13.822
