Measurement: Powder, Xray Data XY RAW, 10876.rruff
Mineral: Omphacite
Rruff sample: R110038
Ideal chemistry: (Ca,Na)(Mg,Fe^2+^,Al)Si_2_O_6_
Locality: Kefalos Hill, Skotini Bay, Galissas, Syros Island, Aegean Sea, Greece
Source: William W Pinch
Description: Pale green granular crystals associated with fluor-dravite R110031
x	intensity
5	0
5.22	0
5.44	0
5.66	0
5.88	0
6.1	0
6.32	0
6.54	0
6.76	0
6.98	0
7.2	0
7.42	0
7.64	0
7.86	0
8.08	0
8.3	0
8.52	0
8.74	0
8.96	0
9.18	0
9.4	0
9.62	0
9.84	0
10.06	0.752
10.28	0
10.5	0
10.72	0
10.94	0
11.16	0
11.38	0
11.6	0
11.82	0
12.04	0
12.26	0
12.48	0
12.7	0
12.92	0
13.14	0
13.36	0
13.58	0
13.8	0.234
14.02	1.393
14.24	0
14.46	0
14.68	0
14.9	0
15.12	0
15.34	0
15.56	0
15.78	0
16	0
16.22	0
16.44	0
16.66	0
16.88	0
17.1	0
17.32	0.002
17.54	0.002
17.76	0
17.98	0
18.2	0
18.42	0
18.64	0
18.86	0
19.08	0
19.3	2.086
19.52	0
19.74	0
19.96	0
20.18	20.39
20.4	0.041
20.62	0
20.84	0
21.06	0
21.28	0
21.5	0
21.72	0.292
21.94	0.011
22.16	0
22.38	0.522
22.6	0
22.82	0
23.04	0
23.26	0
23.48	0
23.7	0
23.92	0
24.14	0.01
24.36	0.344
24.58	0.914
24.8	0.007
25.02	0
25.24	0
25.46	0
25.68	0
25.9	0
26.12	0
26.34	0
26.56	0
26.78	0.838
27	0.286
27.22	0
27.44	0
27.66	0
27.88	0.013
28.1	7.133
28.32	0
28.54	0
28.76	0
28.98	0
29.2	0
29.42	0.011
29.64	0
29.86	0.02
30.08	84.91
30.3	0.12
30.52	0.023
30.74	1.828
30.96	13.234
31.18	6.6
31.4	0.002
31.62	0.386
31.84	0
32.06	0.037
32.28	0
32.5	0
32.72	0
32.94	0
33.16	0
33.38	0
33.6	0
33.82	0
34.04	0
34.26	0
34.48	0
34.7	0
34.92	0
35.14	0.128
35.36	15.592
35.58	36.973
35.8	0.431
36.02	0.023
36.24	28.48
36.46	1.327
36.68	0.131
36.9	0.063
37.12	0.322
37.34	0
37.56	0
37.78	0.002
38	0.037
38.22	0.036
38.44	0.049
38.66	0.025
38.88	0
39.1	0.517
39.32	0.333
39.54	0.038
39.76	0.167
39.98	4.185
40.2	0
40.42	0.272
40.64	0.152
40.86	0.039
41.08	11.022
41.3	2.681
41.52	0.001
41.74	0
41.96	0
42.18	0.674
42.4	0.033
42.62	3.567
42.84	10.861
43.06	0.012
43.28	3.184
43.5	2.524
43.72	0.014
43.94	0.195
44.16	0
44.38	0.257
44.6	0.018
44.82	1.848
45.04	9.188
45.26	0
45.48	0
45.7	2.43
45.92	1.456
46.14	0.145
46.36	1.178
46.58	0.001
46.8	0
47.02	2.98
47.24	0.5
47.46	0.251
47.68	0.125
47.9	0
48.12	0
48.34	0
48.56	1.45
48.78	0.077
49	0.001
49.22	0.027
49.44	0.003
49.66	0.624
49.88	2.377
50.1	0.065
50.32	0.609
50.54	0.908
50.76	1.583
50.98	0.663
51.2	0.098
51.42	0.207
51.64	0.521
51.86	0.182
52.08	0.127
52.3	0
52.52	1.368
52.74	0.262
52.96	6.228
53.18	0.164
53.4	0.389
53.62	0.129
53.84	0.004
54.06	0.15
54.28	0.512
54.5	0.957
54.72	0
54.94	0.009
55.16	1.937
55.38	4.388
55.6	0.713
55.82	0.006
56.04	0.018
56.26	0
56.48	8.482
56.7	5.211
56.92	0.015
57.14	0.06
57.36	11.807
57.58	2.454
57.8	0.073
58.02	2.421
58.24	0.162
58.46	0.14
58.68	0.115
58.9	0.181
59.12	0.452
59.34	0.236
59.56	0.171
59.78	0.145
60	0
60.22	0.767
60.44	1.305
60.66	2.239
60.88	3.399
61.1	0.517
61.32	0.072
61.54	1.843
61.76	7.379
61.98	8.665
62.2	0.863
62.42	0.361
62.64	0.257
62.86	0.022
63.08	0.278
63.3	3.134
63.52	2.275
63.74	0.107
63.96	0.052
64.18	0.267
64.4	0.078
64.62	0.099
64.84	0.682
65.06	0.173
65.28	0.003
65.5	0
65.72	0.023
65.94	0.688
66.16	0.106
66.38	0.262
66.6	0.167
66.82	6.983
67.04	11.937
67.26	4.031
67.48	1.164
67.7	0.12
67.92	0.16
68.14	2.117
68.36	1.359
68.58	0.701
68.8	0.005
69.02	0.005
69.24	0.107
69.46	0.044
69.68	0.002
69.9	0.064
70.12	0.032
70.34	0.05
70.56	0.08
70.78	0.014
71	0.018
71.22	0.062
71.44	2.736
71.66	3.583
71.88	1.338
72.1	0.007
72.32	0.131
72.54	0.667
72.76	0.895
72.98	0.205
73.2	2.204
73.42	0.946
73.64	0.306
73.86	0.197
74.08	0.034
74.3	0
74.52	1.26
74.74	2.316
74.96	1.062
75.18	0.138
75.4	1.564
75.62	0.779
75.84	0.024
76.06	0.17
76.28	0.235
76.5	0.441
76.72	0.222
76.94	0.625
77.16	0.308
77.38	0.035
77.6	4.542
77.82	2.355
78.04	0.017
78.26	1.244
78.48	0.639
78.7	0.109
78.92	0.239
79.14	0.175
79.36	0.08
79.58	0.024
79.8	0.232
80.02	1.344
80.24	0.756
80.46	0.044
80.68	0.09
80.9	0.039
81.12	0.268
81.34	0.134
81.56	0.116
81.78	0.037
82	0.122
82.22	0.035
82.44	0.007
82.66	0.016
82.88	0.038
83.1	0.034
83.32	0.164
83.54	0.29
83.76	0.269
83.98	2.197
84.2	1.165
84.42	0.387
84.64	0.236
84.86	0.098
85.08	0.034
85.3	0.005
85.52	0.376
85.74	0.226
85.96	0.477
86.18	0.298
86.4	0.223
86.62	0.044
86.84	0.021
87.06	0.002
87.28	0.018
87.5	0.027
87.72	0.025
87.94	0.041
88.16	0.056
88.38	0.103
88.6	0.121
88.82	0.332
89.04	0.698
89.26	0.152
89.48	0.071
89.7	0.019
89.92	0.023
