Measurement: Powder, Xray Data XY RAW, 10886.rruff
Mineral: Pyroxene
Rruff sample: R110130
Locality: Little Deer Creek eclogite, Skagit County, Washington, USA
Source: Bart Cannon
Description: Blocky transparent green crystals coating a surface of a rock. Single crystal X-ray diffraction shows that this sample is composed of exsolution lamellae of diopside and jadeite
x	intensity
5	0
5.22	0
5.44	0
5.66	0
5.88	0
6.1	0
6.32	0
6.54	0
6.76	0
6.98	0
7.2	0
7.42	0
7.64	0
7.86	0
8.08	0
8.3	0
8.52	0
8.74	0
8.96	0
9.18	0
9.4	0
9.62	0
9.84	0
10.06	0
10.28	0
10.5	0
10.72	0
10.94	0
11.16	0
11.38	0
11.6	0
11.82	0
12.04	0
12.26	0
12.48	0
12.7	0
12.92	0
13.14	0
13.36	0
13.58	1.702
13.8	0.056
14.02	0
14.24	0
14.46	0
14.68	0
14.9	0
15.12	0
15.34	0
15.56	0
15.78	0
16	0
16.22	0
16.44	0
16.66	0
16.88	0
17.1	0
17.32	0
17.54	0
17.76	0
17.98	0
18.2	0
18.42	1.18
18.64	0.001
18.86	0
19.08	0
19.3	0
19.52	0
19.74	0
19.96	0
20.18	8.151
20.4	0.022
20.62	0
20.84	0
21.06	0
21.28	0
21.5	0
21.72	1.047
21.94	0
22.16	0
22.38	0
22.6	0
22.82	0
23.04	0
23.26	0
23.48	0
23.7	0
23.92	0
24.14	0
24.36	0
24.58	0
24.8	0
25.02	0
25.24	0
25.46	0
25.68	0
25.9	0
26.12	0
26.34	0.003
26.56	0.001
26.78	0
27	4.18
27.22	1.955
27.44	5.804
27.66	0.85
27.88	0.269
28.1	59.504
28.32	0
28.54	0
28.76	0
28.98	0
29.2	0
29.42	0
29.64	41.791
29.86	0.353
30.08	0
30.3	0
30.52	0
30.74	0
30.96	0
31.18	0
31.4	0
31.62	0
31.84	0.206
32.06	1.693
32.28	0.294
32.5	20.286
32.72	0
32.94	0
33.16	0
33.38	0
33.6	0
33.82	0
34.04	0.035
34.26	1.301
34.48	0.065
34.7	0
34.92	0
35.14	0.007
35.36	18.639
35.58	0.004
35.8	0
36.02	0
36.24	1.593
36.46	1.989
36.68	0.003
36.9	0.209
37.12	0
37.34	0.164
37.56	0.077
37.78	0
38	0
38.22	0
38.44	0
38.66	0.156
38.88	2.329
39.1	8.305
39.32	0
39.54	0
39.76	0.054
39.98	3.543
40.2	0.007
40.42	2.198
40.64	0.001
40.86	0
41.08	0.248
41.3	0.002
41.52	0
41.74	1
41.96	0.187
42.18	0
42.4	0.001
42.62	3.883
42.84	0.055
43.06	0.008
43.28	0
43.5	0
43.72	0
43.94	0
44.16	0.002
44.38	0.063
44.6	0.011
44.82	0.064
45.04	0
45.26	3.704
45.48	6.721
45.7	11.926
45.92	4.261
46.14	0
46.36	3.869
46.58	0.337
46.8	0
47.02	0
47.24	0.033
47.46	0.565
47.68	0
47.9	0
48.12	0
48.34	0.295
48.56	1.89
48.78	1.805
49	0.035
49.22	0.086
49.44	1.161
49.66	0
49.88	0
50.1	0
50.32	0.727
50.54	0.029
50.76	0
50.98	0
51.2	0
51.42	2.977
51.64	1.282
51.86	0.042
52.08	0.375
52.3	3.156
52.52	1.088
52.74	0.76
52.96	4.102
53.18	1.078
53.4	0.076
53.62	0.15
53.84	0
54.06	0.645
54.28	0.318
54.5	0.41
54.72	0
54.94	0.725
55.16	0.229
55.38	1.26
55.6	0.004
55.82	3.859
56.04	1.474
56.26	0.126
56.48	6.466
56.7	1.093
56.92	1.459
57.14	0.001
57.36	0.108
57.58	1.018
57.8	0.073
58.02	0.691
58.24	0.007
58.46	0.01
58.68	0.854
58.9	0.04
59.12	0
59.34	0
59.56	0.008
59.78	0.041
60	0.953
60.22	10.453
60.44	2.759
60.66	2.759
60.88	0.012
61.1	1.473
61.32	0.454
61.54	0.249
61.76	0.043
61.98	0
62.2	0.442
62.42	5.835
62.64	1.196
62.86	0.332
63.08	0.077
63.3	0
63.52	6.021
63.74	2.927
63.96	0.011
64.18	0.03
64.4	1.976
64.62	1.331
64.84	0.084
65.06	0.043
65.28	0
65.5	0
65.72	0
65.94	0
66.16	0.031
66.38	0.048
66.6	0.001
66.82	0.095
67.04	0.301
67.26	0.105
67.48	0
67.7	0
67.92	0.011
68.14	0.003
68.36	3.198
68.58	2.931
68.8	1.833
69.02	1.752
69.24	3.834
69.46	5.352
69.68	2.916
69.9	0.32
70.12	0
70.34	0
70.56	0
70.78	0.015
71	0.011
71.22	0
71.44	0.207
71.66	0.239
71.88	0.085
72.1	0.018
72.32	1.655
72.54	1.22
72.76	0.039
72.98	0.291
73.2	0.145
73.42	0.06
73.64	0.017
73.86	0.515
74.08	0.751
74.3	0.268
74.52	0.015
74.74	1.869
74.96	1.339
75.18	0.183
75.4	0.083
75.62	0.866
75.84	0.413
76.06	0.959
76.28	1.423
76.5	0.613
76.72	0.08
76.94	0.041
77.16	2.576
77.38	1.624
77.6	0.122
77.82	0.031
78.04	0
78.26	0.004
78.48	0.097
78.7	0.134
78.92	0.078
79.14	0.188
79.36	0.72
79.58	0.237
79.8	0.552
80.02	0.312
80.24	0
80.46	0.004
80.68	0.043
80.9	0.034
81.12	0.934
81.34	0.748
81.56	0.107
81.78	0
82	0.098
82.22	0.03
82.44	0.01
82.66	0.008
82.88	1.285
83.1	0.582
83.32	0.512
83.54	0.112
83.76	0.403
83.98	0.296
84.2	0
84.42	0.019
84.64	1.091
84.86	1.093
85.08	0.298
85.3	0.06
85.52	0.002
85.74	0.353
85.96	0.497
86.18	0.219
86.4	0.337
86.62	0.066
86.84	0.136
87.06	0.04
87.28	0.176
87.5	0.081
87.72	0.001
87.94	0
88.16	0
88.38	0
88.6	0.024
88.82	0.01
89.04	0.128
89.26	0.252
89.48	0.187
89.7	0.206
89.92	0.22
