Measurement: Powder, Xray Data XY Processed, 8486.rruff
Mineral: Silver
Rruff sample: R070416
Ideal chemistry: Ag
Locality: Frontier mine, South Lorrain, Timiskaming District, Ontario, Canada
Source: Royal Ontario Museum
Description: Silver-white metallic wires with grey to bronze colored tarnished surface
x	intensity
5	0
5.22	13.1709
5.44	2.29512
5.66	7.48641
5.88	9.36228
6.1	9.81519
6.32	8.60606
6.54	14.2276
6.76	6.72068
6.98	15.4657
7.2	0.795568
7.42	3.1498
7.64	2.36573
7.86	13.6292
8.08	9.90528
8.3	3.2615
8.52	7.29468
8.74	1.6605
8.96	2.9803
9.18	9.23455
9.4	0.746802
9.62	2.27197
9.84	6.68555
10.06	6.73333
10.28	9.60008
10.5	14.7776
10.72	1.84326
10.94	5.15897
11.16	6.8446
11.38	7.90161
11.6	17.2755
11.82	18.4188
12.04	18.0888
12.26	0.912828
12.48	5.95928
12.7	16.0421
12.92	4.20217
13.14	7.49718
13.36	4.31762
13.58	6.67529
13.8	0.605036
14.02	10.7165
14.24	2.03549
14.46	4.33002
14.68	8.5916
14.9	11.6112
15.12	5.64836
15.34	11.5941
15.56	5.73826
15.78	12.264
16	7.49998
16.22	2.13308
16.44	2.07719
16.66	3.73961
16.88	6.91224
17.1	3.87572
17.32	3.75856
17.54	7.6384
17.76	3.67082
17.98	4.52896
18.2	4.39111
18.42	4.98086
18.64	5.78733
18.86	2.78339
19.08	4.0115
19.3	1.69729
19.52	10.4606
19.74	4.34941
19.96	6.25968
20.18	11.0196
20.4	8.4329
20.62	16.1448
20.84	1.28025
21.06	10.9767
21.28	8.36333
21.5	3.46209
21.72	8.71675
21.94	7.893
22.16	7.18587
22.38	5.47317
22.6	1.71111
22.82	0.968843
23.04	16.0196
23.26	5.99709
23.48	4.18662
23.7	10.9116
23.92	12.1508
24.14	8.48107
24.36	5.39996
24.58	7.49642
24.8	11.4181
25.02	5.3975
25.24	6.97088
25.46	6.81565
25.68	4.51785
25.9	7.01455
26.12	4.8658
26.34	9.75639
26.56	2.82724
26.78	8.74814
27	0.194445
27.22	8.63066
27.44	2.99382
27.66	5.88924
27.88	3.88907
28.1	19.8423
28.32	4.8278
28.54	0.832662
28.76	13.0297
28.98	13.0072
29.2	8.40083
29.42	6.48536
29.64	10.8445
29.86	8.7183
30.08	10.0412
30.3	8.32201
30.52	16.4916
30.74	16.3144
30.96	5.88178
31.18	3.92887
31.4	10.0886
31.62	9.87416
31.84	6.90327
32.06	8.90652
32.28	5.39339
32.5	5.08088
32.72	1.0063
32.94	13.9412
33.16	12.6145
33.38	6.63933
33.6	2.78692
33.82	8.86725
34.04	0.753315
34.26	16.0025
34.48	0.282035
34.7	1.62228
34.92	15.9997
35.14	1.27072
35.36	4.72227
35.58	4.97729
35.8	14.2798
36.02	23.1678
36.24	4.41479
36.46	10.4139
36.68	2.45848
36.9	2.73115
37.12	1.05417
37.34	5.09195
37.56	3.06517
37.78	25.6723
38	124.56
38.22	526.408
38.44	110.022
38.66	19.0482
38.88	10.8157
39.1	8.80812
39.32	7.08874
39.54	9.20569
39.76	6.49543
39.98	6.50331
40.2	3.47665
40.42	5.36195
40.64	10.3903
40.86	1.56808
41.08	7.93948
41.3	16.8725
41.52	5.63974
41.74	6.39246
41.96	12.9293
42.18	0.164204
42.4	3.21255
42.62	11.2146
42.84	3.37101
43.06	12.6971
43.28	15.3027
43.5	7.31382
43.72	7.30162
43.94	19.4027
44.16	62.2825
44.38	200.073
44.6	39.5153
44.82	10.7244
45.04	3.54051
45.26	7.46356
45.48	20.4263
45.7	3.54847
45.92	3.40691
46.14	10.5977
46.36	5.33766
46.58	0.378517
46.8	11.2291
47.02	3.78444
47.24	8.99094
47.46	0.524522
47.68	6.25356
47.9	4.92252
48.12	5.73379
48.34	11.7401
48.56	6.17032
48.78	2.68491
49	4.93491
49.22	3.1055
49.44	5.77736
49.66	0.80338
49.88	1.06769
50.1	6.75437
50.32	6.08544
50.54	3.45262
50.76	4.10038
50.98	6.95841
51.2	1.27525
51.42	5.65904
51.64	12.0209
51.86	0.48006
52.08	4.48808
52.3	7.79831
52.52	5.12137
52.74	7.54674
52.96	3.33473
53.18	10.5228
53.4	4.64415
53.62	0.519167
53.84	3.5537
54.06	7.39646
54.28	7.17443
54.5	10.1426
54.72	7.98731
54.94	7.29587
55.16	10.8677
55.38	0.319013
55.6	4.42597
55.82	8.99378
56.04	1.30907
56.26	6.1765
56.48	1.56971
56.7	4.41111
56.92	9.88066
57.14	3.88265
57.36	2.59341
57.58	10.7415
57.8	8.19799
58.02	3.64022
58.24	9.18138
58.46	6.53616
58.68	4.49472
58.9	2.51879
59.12	3.4727
59.34	2.44272
59.56	7.41474
59.78	6.36551
60	8.48524
60.22	6.27457
60.44	6.17647
60.66	3.2449
60.88	7.84908
61.1	10.7468
61.32	2.88382
61.54	10.899
61.76	7.91333
61.98	0.642742
62.2	4.65206
62.42	6.94781
62.64	8.28194
62.86	5.3963
63.08	2.54681
63.3	2.36337
63.52	3.67904
63.74	2.64014
63.96	7.74974
64.18	27.8217
64.4	65.5328
64.62	127.189
64.84	40.6924
65.06	15.5313
65.28	8.23772
65.5	10.0173
65.72	5.92463
65.94	3.69667
66.16	2.50461
66.38	8.23335
66.6	7.44736
66.82	4.94191
67.04	6.9347
67.26	7.35204
67.48	11.1563
67.7	8.17575
67.92	6.25709
68.14	1.42903
68.36	8.71049
68.58	12.007
68.8	10.0422
69.02	0.503504
69.24	1.56234
69.46	5.48274
69.68	3.488
69.9	5.47123
70.12	7.72355
70.34	2.85115
70.56	8.77437
70.78	4.80862
71	3.65005
71.22	2.95063
71.44	6.15562
71.66	7.30846
71.88	10.3966
72.1	0.682321
72.32	6.84886
72.54	0.973044
72.76	0.85203
72.98	8.72508
73.2	7.74855
73.42	8.01379
73.64	3.73072
73.86	11.4444
74.08	14.5227
74.3	6.24046
74.52	7.83685
74.74	11.7277
74.96	6.05605
75.18	5.78582
75.4	2.05763
75.62	2.24944
75.84	2.16723
76.06	11.3672
76.28	5.68796
76.5	10.7389
76.72	9.29442
76.94	11.8876
77.16	41.4413
77.38	74.4682
77.6	75.8144
77.82	51.7836
78.04	11.8964
78.26	11.7693
78.48	7.51293
78.7	10.2618
78.92	13.0317
79.14	1.57665
79.36	2.44556
79.58	7.94712
79.8	2.00899
80.02	4.54481
80.24	4.86826
80.46	1.34494
80.68	3.94859
80.9	8.71645
81.12	4.74152
81.34	10.6086
81.56	43.6199
81.78	25.1871
82	12.1556
82.22	11.3657
82.44	5.66219
82.66	4.86295
82.88	4.37977
83.1	0.186655
83.32	4.22644
83.54	7.40519
83.76	2.51668
83.98	1.69512
84.2	6.74375
84.42	5.93639
84.64	6.17754
84.86	15.2587
85.08	7.53807
85.3	3.33938
85.52	5.39801
85.74	6.49217
85.96	7.52462
86.18	1.67761
86.4	4.99698
86.62	5.30254
86.84	1.5381
87.06	3.65907
87.28	7.95209
87.5	7.03519
87.72	8.27729
87.94	5.43509
88.16	7.47935
88.38	10.652
88.6	9.91714
88.82	4.58967
89.04	4.61278
89.26	3.26823
89.48	2.04218
89.7	6.04177
89.92	3.70448
